MODEL 1
REMARK VINA RESULT:      -9.0      0.000      0.000
REMARK  Name = 5284566
REMARK  4 active torsions:
REMARK  status: ('A' for Active; 'I' for Inactive)
REMARK    1  A    between atoms: N_2  and  C_14
REMARK    2  A    between atoms: N_3  and  C_10
REMARK    3  A    between atoms: N_5  and  C_21
REMARK    4  A    between atoms: C_15  and  C_16
REMARK                            x       y       z     vdW  Elec       q    Type
REMARK                         _______ _______ _______ _____ _____    ______ ____
ROOT
ATOM      1  O   UNL     1      13.919  27.924   7.320  0.00  0.00    -0.268 OA
ATOM      2  C   UNL     1      13.181  28.235   6.386  0.00  0.00    +0.265 C 
ATOM      3  N   UNL     1      13.035  27.459   5.242  0.00  0.00    -0.307 N 
ATOM      4  H   UNL     1      12.364  27.743   4.534  0.00  0.00    +0.149 HD
ENDROOT
BRANCH   2   5
ATOM      5  C   UNL     1      12.363  29.455   6.431  0.00  0.00    +0.155 A 
ATOM      6  C   UNL     1      11.688  29.961   7.538  0.00  0.00    +0.032 A 
ATOM      7  C   UNL     1      11.504  29.610   8.886  0.00  0.00    +0.012 A 
ATOM      8  C   UNL     1      10.711  30.437   9.691  0.00  0.00    +0.001 A 
ATOM      9  C   UNL     1      10.113  31.586   9.169  0.00  0.00    +0.002 A 
ATOM     10  C   UNL     1      10.286  31.948   7.829  0.00  0.00    +0.028 A 
ATOM     11  C   UNL     1      11.081  31.110   7.045  0.00  0.00    +0.069 A 
ATOM     12  N   UNL     1      11.445  31.172   5.726  0.00  0.00    -0.266 N 
ATOM     13  C   UNL     1      11.067  32.190   4.774  0.00  0.00    +0.173 C 
ATOM     14  N   UNL     1      12.236  30.162   5.326  0.00  0.00    -0.166 NA
ENDBRANCH   2   5
BRANCH   3  15
ATOM     15  C   UNL     1      13.748  26.214   5.063  0.00  0.00    +0.076 C 
ATOM     16  C   UNL     1      12.884  25.196   4.312  0.00  0.00    +0.041 C 
ATOM     17  C   UNL     1      13.666  23.996   3.743  0.00  0.00    +0.058 C 
ATOM     18  C   UNL     1      14.134  22.999   4.822  0.00  0.00    +0.019 C 
ATOM     19  C   UNL     1      15.292  23.497   5.686  0.00  0.00    +0.003 C 
ATOM     20  C   UNL     1      16.338  24.263   4.878  0.00  0.00    +0.019 C 
ATOM     21  C   UNL     1      15.755  25.195   3.797  0.00  0.00    +0.058 C 
ATOM     22  N   UNL     1      14.842  24.403   2.961  0.00  0.00    -0.299 NA
ATOM     23  C   UNL     1      14.500  25.056   1.701  0.00  0.00    +0.105 C 
ATOM     24  C   UNL     1      15.092  26.462   4.370  0.00  0.00    +0.041 C 
ENDBRANCH   3  15
TORSDOF 2
ENDMDL
MODEL 2
REMARK VINA RESULT:      -8.3      3.490      7.745
REMARK  Name = 5284566
REMARK  4 active torsions:
REMARK  status: ('A' for Active; 'I' for Inactive)
REMARK    1  A    between atoms: N_2  and  C_14
REMARK    2  A    between atoms: N_3  and  C_10
REMARK    3  A    between atoms: N_5  and  C_21
REMARK    4  A    between atoms: C_15  and  C_16
REMARK                            x       y       z     vdW  Elec       q    Type
REMARK                         _______ _______ _______ _____ _____    ______ ____
ROOT
ATOM      1  O   UNL     1      15.554  24.320   2.892  0.00  0.00    -0.268 OA
ATOM      2  C   UNL     1      14.426  24.732   2.625  0.00  0.00    +0.265 C 
ATOM      3  N   UNL     1      13.642  25.440   3.529  0.00  0.00    -0.307 N 
ATOM      4  H   UNL     1      12.743  25.804   3.226  0.00  0.00    +0.149 HD
ENDROOT
BRANCH   2   5
ATOM      5  C   UNL     1      13.832  24.528   1.297  0.00  0.00    +0.155 A 
ATOM      6  C   UNL     1      13.278  23.349   0.808  0.00  0.00    +0.032 A 
ATOM      7  C   UNL     1      13.064  22.038   1.268  0.00  0.00    +0.012 A 
ATOM      8  C   UNL     1      12.442  21.121   0.411  0.00  0.00    +0.001 A 
ATOM      9  C   UNL     1      12.043  21.496  -0.873  0.00  0.00    +0.002 A 
ATOM     10  C   UNL     1      12.250  22.796  -1.345  0.00  0.00    +0.028 A 
ATOM     11  C   UNL     1      12.870  23.695  -0.475  0.00  0.00    +0.069 A 
ATOM     12  N   UNL     1      13.214  25.012  -0.619  0.00  0.00    -0.266 N 
ATOM     13  C   UNL     1      12.998  25.837  -1.785  0.00  0.00    +0.173 C 
ATOM     14  N   UNL     1      13.808  25.547   0.461  0.00  0.00    -0.166 NA
ENDBRANCH   2   5
BRANCH   3  15
ATOM     15  C   UNL     1      14.100  25.749   4.865  0.00  0.00    +0.076 C 
ATOM     16  C   UNL     1      15.515  26.335   4.833  0.00  0.00    +0.041 C 
ATOM     17  C   UNL     1      15.941  27.039   6.135  0.00  0.00    +0.058 C 
ATOM     18  C   UNL     1      16.230  26.066   7.296  0.00  0.00    +0.019 C 
ATOM     19  C   UNL     1      14.986  25.424   7.908  0.00  0.00    +0.003 C 
ATOM     20  C   UNL     1      13.821  26.404   8.034  0.00  0.00    +0.019 C 
ATOM     21  C   UNL     1      13.658  27.360   6.835  0.00  0.00    +0.058 C 
ATOM     22  N   UNL     1      14.951  28.019   6.602  0.00  0.00    -0.299 NA
ATOM     23  C   UNL     1      14.852  29.195   5.742  0.00  0.00    +0.105 C 
ATOM     24  C   UNL     1      13.103  26.672   5.572  0.00  0.00    +0.041 C 
ENDBRANCH   3  15
TORSDOF 2
ENDMDL
MODEL 3
REMARK VINA RESULT:      -8.2      1.558      2.659
REMARK  Name = 5284566
REMARK  4 active torsions:
REMARK  status: ('A' for Active; 'I' for Inactive)
REMARK    1  A    between atoms: N_2  and  C_14
REMARK    2  A    between atoms: N_3  and  C_10
REMARK    3  A    between atoms: N_5  and  C_21
REMARK    4  A    between atoms: C_15  and  C_16
REMARK                            x       y       z     vdW  Elec       q    Type
REMARK                         _______ _______ _______ _____ _____    ______ ____
ROOT
ATOM      1  O   UNL     1      15.055  28.047   8.182  0.00  0.00    -0.268 OA
ATOM      2  C   UNL     1      14.085  28.255   7.454  0.00  0.00    +0.265 C 
ATOM      3  N   UNL     1      13.879  27.585   6.253  0.00  0.00    -0.307 N 
ATOM      4  H   UNL     1      13.027  27.762   5.728  0.00  0.00    +0.149 HD
ENDROOT
BRANCH   2   5
ATOM      5  C   UNL     1      13.042  29.220   7.827  0.00  0.00    +0.155 A 
ATOM      6  C   UNL     1      12.309  30.026   6.962  0.00  0.00    +0.032 A 
ATOM      7  C   UNL     1      12.232  30.254   5.577  0.00  0.00    +0.012 A 
ATOM      8  C   UNL     1      11.310  31.197   5.104  0.00  0.00    +0.001 A 
ATOM      9  C   UNL     1      10.484  31.898   5.986  0.00  0.00    +0.002 A 
ATOM     10  C   UNL     1      10.550  31.682   7.366  0.00  0.00    +0.028 A 
ATOM     11  C   UNL     1      11.475  30.737   7.817  0.00  0.00    +0.069 A 
ATOM     12  N   UNL     1      11.788  30.297   9.074  0.00  0.00    -0.266 N 
ATOM     13  C   UNL     1      11.191  30.735  10.315  0.00  0.00    +0.173 C 
ATOM     14  N   UNL     1      12.751  29.361   9.106  0.00  0.00    -0.166 NA
ENDBRANCH   2   5
BRANCH   3  15
ATOM     15  C   UNL     1      14.799  26.583   5.765  0.00  0.00    +0.076 C 
ATOM     16  C   UNL     1      14.605  25.258   6.509  0.00  0.00    +0.041 C 
ATOM     17  C   UNL     1      15.255  24.042   5.822  0.00  0.00    +0.058 C 
ATOM     18  C   UNL     1      16.793  24.025   5.926  0.00  0.00    +0.019 C 
ATOM     19  C   UNL     1      17.500  25.053   5.043  0.00  0.00    +0.003 C 
ATOM     20  C   UNL     1      16.850  25.189   3.667  0.00  0.00    +0.019 C 
ATOM     21  C   UNL     1      15.309  25.146   3.681  0.00  0.00    +0.058 C 
ATOM     22  N   UNL     1      14.896  23.933   4.401  0.00  0.00    -0.299 NA
ATOM     23  C   UNL     1      13.495  23.582   4.184  0.00  0.00    +0.105 C 
ATOM     24  C   UNL     1      14.663  26.425   4.248  0.00  0.00    +0.041 C 
ENDBRANCH   3  15
TORSDOF 2
ENDMDL
MODEL 4
REMARK VINA RESULT:      -7.1      1.308      2.301
REMARK  Name = 5284566
REMARK  4 active torsions:
REMARK  status: ('A' for Active; 'I' for Inactive)
REMARK    1  A    between atoms: N_2  and  C_14
REMARK    2  A    between atoms: N_3  and  C_10
REMARK    3  A    between atoms: N_5  and  C_21
REMARK    4  A    between atoms: C_15  and  C_16
REMARK                            x       y       z     vdW  Elec       q    Type
REMARK                         _______ _______ _______ _____ _____    ______ ____
ROOT
ATOM      1  O   UNL     1      13.948  28.309   7.516  0.00  0.00    -0.268 OA
ATOM      2  C   UNL     1      13.319  28.643   6.513  0.00  0.00    +0.265 C 
ATOM      3  N   UNL     1      13.427  27.983   5.294  0.00  0.00    -0.307 N 
ATOM      4  H   UNL     1      12.835  28.273   4.520  0.00  0.00    +0.149 HD
ENDROOT
BRANCH   2   5
ATOM      5  C   UNL     1      12.369  29.763   6.544  0.00  0.00    +0.155 A 
ATOM      6  C   UNL     1      11.655  30.215   7.650  0.00  0.00    +0.032 A 
ATOM      7  C   UNL     1      11.529  29.877   9.008  0.00  0.00    +0.012 A 
ATOM      8  C   UNL     1      10.657  30.628   9.806  0.00  0.00    +0.001 A 
ATOM      9  C   UNL     1       9.926  31.690   9.269  0.00  0.00    +0.002 A 
ATOM     10  C   UNL     1      10.041  32.038   7.919  0.00  0.00    +0.028 A 
ATOM     11  C   UNL     1      10.916  31.277   7.141  0.00  0.00    +0.069 A 
ATOM     12  N   UNL     1      11.255  31.349   5.816  0.00  0.00    -0.266 N 
ATOM     13  C   UNL     1      10.752  32.297   4.849  0.00  0.00    +0.173 C 
ATOM     14  N   UNL     1      12.149  30.427   5.426  0.00  0.00    -0.166 NA
ENDBRANCH   2   5
BRANCH   3  15
ATOM     15  C   UNL     1      14.296  26.842   5.113  0.00  0.00    +0.076 C 
ATOM     16  C   UNL     1      15.755  27.221   5.383  0.00  0.00    +0.041 C 
ATOM     17  C   UNL     1      16.697  26.019   5.589  0.00  0.00    +0.058 C 
ATOM     18  C   UNL     1      17.002  25.247   4.289  0.00  0.00    +0.019 C 
ATOM     19  C   UNL     1      15.841  24.402   3.766  0.00  0.00    +0.003 C 
ATOM     20  C   UNL     1      15.077  23.698   4.886  0.00  0.00    +0.019 C 
ATOM     21  C   UNL     1      14.872  24.550   6.154  0.00  0.00    +0.058 C 
ATOM     22  N   UNL     1      16.185  25.059   6.576  0.00  0.00    -0.299 NA
ATOM     23  C   UNL     1      16.192  25.575   7.942  0.00  0.00    +0.105 C 
ATOM     24  C   UNL     1      13.827  25.670   5.980  0.00  0.00    +0.041 C 
ENDBRANCH   3  15
TORSDOF 2
ENDMDL
MODEL 5
REMARK VINA RESULT:      -6.9      7.458      8.304
REMARK  Name = 5284566
REMARK  4 active torsions:
REMARK  status: ('A' for Active; 'I' for Inactive)
REMARK    1  A    between atoms: N_2  and  C_14
REMARK    2  A    between atoms: N_3  and  C_10
REMARK    3  A    between atoms: N_5  and  C_21
REMARK    4  A    between atoms: C_15  and  C_16
REMARK                            x       y       z     vdW  Elec       q    Type
REMARK                         _______ _______ _______ _____ _____    ______ ____
ROOT
ATOM      1  O   UNL     1      10.996  26.001  -0.418  0.00  0.00    -0.268 OA
ATOM      2  C   UNL     1      11.825  26.106  -1.322  0.00  0.00    +0.265 C 
ATOM      3  N   UNL     1      12.670  25.070  -1.702  0.00  0.00    -0.307 N 
ATOM      4  H   UNL     1      13.291  25.204  -2.496  0.00  0.00    +0.149 HD
ENDROOT
BRANCH   2   5
ATOM      5  C   UNL     1      11.958  27.348  -2.096  0.00  0.00    +0.155 A 
ATOM      6  C   UNL     1      11.264  28.536  -1.886  0.00  0.00    +0.032 A 
ATOM      7  C   UNL     1      10.289  29.020  -0.997  0.00  0.00    +0.012 A 
ATOM      8  C   UNL     1       9.847  30.341  -1.144  0.00  0.00    +0.001 A 
ATOM      9  C   UNL     1      10.360  31.162  -2.150  0.00  0.00    +0.002 A 
ATOM     10  C   UNL     1      11.330  30.694  -3.042  0.00  0.00    +0.028 A 
ATOM     11  C   UNL     1      11.758  29.375  -2.878  0.00  0.00    +0.069 A 
ATOM     12  N   UNL     1      12.673  28.622  -3.564  0.00  0.00    -0.266 N 
ATOM     13  C   UNL     1      13.465  29.047  -4.694  0.00  0.00    +0.173 C 
ATOM     14  N   UNL     1      12.814  27.369  -3.100  0.00  0.00    -0.166 NA
ENDBRANCH   2   5
BRANCH   3  15
ATOM     15  C   UNL     1      12.637  23.777  -1.058  0.00  0.00    +0.076 C 
ATOM     16  C   UNL     1      11.619  22.856  -1.738  0.00  0.00    +0.041 C 
ATOM     17  C   UNL     1      11.774  21.364  -1.384  0.00  0.00    +0.058 C 
ATOM     18  C   UNL     1      11.321  21.022   0.050  0.00  0.00    +0.019 C 
ATOM     19  C   UNL     1      12.269  21.505   1.147  0.00  0.00    +0.003 C 
ATOM     20  C   UNL     1      13.740  21.329   0.770  0.00  0.00    +0.019 C 
ATOM     21  C   UNL     1      14.067  21.656  -0.701  0.00  0.00    +0.058 C 
ATOM     22  N   UNL     1      13.152  20.881  -1.551  0.00  0.00    -0.299 NA
ATOM     23  C   UNL     1      13.576  20.817  -2.946  0.00  0.00    +0.105 C 
ATOM     24  C   UNL     1      14.040  23.164  -1.015  0.00  0.00    +0.041 C 
ENDBRANCH   3  15
TORSDOF 2
ENDMDL
MODEL 6
REMARK VINA RESULT:      -6.9      2.112      7.707
REMARK  Name = 5284566
REMARK  4 active torsions:
REMARK  status: ('A' for Active; 'I' for Inactive)
REMARK    1  A    between atoms: N_2  and  C_14
REMARK    2  A    between atoms: N_3  and  C_10
REMARK    3  A    between atoms: N_5  and  C_21
REMARK    4  A    between atoms: C_15  and  C_16
REMARK                            x       y       z     vdW  Elec       q    Type
REMARK                         _______ _______ _______ _____ _____    ______ ____
ROOT
ATOM      1  O   UNL     1      11.488  29.819   5.676  0.00  0.00    -0.268 OA
ATOM      2  C   UNL     1      11.777  29.002   6.550  0.00  0.00    +0.265 C 
ATOM      3  N   UNL     1      11.280  29.069   7.847  0.00  0.00    -0.307 N 
ATOM      4  H   UNL     1      11.511  28.329   8.504  0.00  0.00    +0.149 HD
ENDROOT
BRANCH   2   5
ATOM      5  C   UNL     1      12.658  27.860   6.268  0.00  0.00    +0.155 A 
ATOM      6  C   UNL     1      13.736  27.434   7.038  0.00  0.00    +0.032 A 
ATOM      7  C   UNL     1      14.373  27.821   8.229  0.00  0.00    +0.012 A 
ATOM      8  C   UNL     1      15.477  27.080   8.669  0.00  0.00    +0.001 A 
ATOM      9  C   UNL     1      15.939  25.980   7.942  0.00  0.00    +0.002 A 
ATOM     10  C   UNL     1      15.315  25.584   6.755  0.00  0.00    +0.028 A 
ATOM     11  C   UNL     1      14.216  26.335   6.335  0.00  0.00    +0.069 A 
ATOM     12  N   UNL     1      13.398  26.220   5.243  0.00  0.00    -0.266 N 
ATOM     13  C   UNL     1      13.485  25.224   4.201  0.00  0.00    +0.173 C 
ATOM     14  N   UNL     1      12.429  27.149   5.182  0.00  0.00    -0.166 NA
ENDBRANCH   2   5
BRANCH   3  15
ATOM     15  C   UNL     1      10.376  30.115   8.270  0.00  0.00    +0.076 C 
ATOM     16  C   UNL     1      11.060  31.484   8.203  0.00  0.00    +0.041 C 
ATOM     17  C   UNL     1      10.092  32.682   8.263  0.00  0.00    +0.058 C 
ATOM     18  C   UNL     1       9.481  32.910   9.660  0.00  0.00    +0.019 C 
ATOM     19  C   UNL     1       8.425  31.882  10.066  0.00  0.00    +0.003 C 
ATOM     20  C   UNL     1       7.507  31.496   8.908  0.00  0.00    +0.019 C 
ATOM     21  C   UNL     1       8.220  31.341   7.550  0.00  0.00    +0.058 C 
ATOM     22  N   UNL     1       8.988  32.569   7.299  0.00  0.00    -0.299 NA
ATOM     23  C   UNL     1       9.418  32.708   5.911  0.00  0.00    +0.105 C 
ATOM     24  C   UNL     1       9.082  30.068   7.451  0.00  0.00    +0.041 C 
ENDBRANCH   3  15
TORSDOF 2
ENDMDL
MODEL 7
REMARK VINA RESULT:      -6.8      2.631      8.323
REMARK  Name = 5284566
REMARK  4 active torsions:
REMARK  status: ('A' for Active; 'I' for Inactive)
REMARK    1  A    between atoms: N_2  and  C_14
REMARK    2  A    between atoms: N_3  and  C_10
REMARK    3  A    between atoms: N_5  and  C_21
REMARK    4  A    between atoms: C_15  and  C_16
REMARK                            x       y       z     vdW  Elec       q    Type
REMARK                         _______ _______ _______ _____ _____    ______ ____
ROOT
ATOM      1  O   UNL     1      10.963  31.001   5.709  0.00  0.00    -0.268 OA
ATOM      2  C   UNL     1      11.081  30.153   6.593  0.00  0.00    +0.265 C 
ATOM      3  N   UNL     1      10.434  30.240   7.820  0.00  0.00    -0.307 N 
ATOM      4  H   UNL     1      10.528  29.475   8.483  0.00  0.00    +0.149 HD
ENDROOT
BRANCH   2   5
ATOM      5  C   UNL     1      11.903  28.951   6.394  0.00  0.00    +0.155 A 
ATOM      6  C   UNL     1      12.996  28.558   7.160  0.00  0.00    +0.032 A 
ATOM      7  C   UNL     1      13.700  29.034   8.279  0.00  0.00    +0.012 A 
ATOM      8  C   UNL     1      14.792  28.293   8.748  0.00  0.00    +0.001 A 
ATOM      9  C   UNL     1      15.178  27.107   8.120  0.00  0.00    +0.002 A 
ATOM     10  C   UNL     1      14.488  26.621   7.004  0.00  0.00    +0.028 A 
ATOM     11  C   UNL     1      13.402  27.374   6.554  0.00  0.00    +0.069 A 
ATOM     12  N   UNL     1      12.533  27.186   5.513  0.00  0.00    -0.266 N 
ATOM     13  C   UNL     1      12.536  26.088   4.574  0.00  0.00    +0.173 C 
ATOM     14  N   UNL     1      11.600  28.146   5.395  0.00  0.00    -0.166 NA
ENDBRANCH   2   5
BRANCH   3  15
ATOM     15  C   UNL     1       9.565  31.345   8.154  0.00  0.00    +0.076 C 
ATOM     16  C   UNL     1       8.096  30.963   7.949  0.00  0.00    +0.041 C 
ATOM     17  C   UNL     1       7.091  31.916   8.624  0.00  0.00    +0.058 C 
ATOM     18  C   UNL     1       6.969  33.282   7.920  0.00  0.00    +0.019 C 
ATOM     19  C   UNL     1       8.167  34.209   8.122  0.00  0.00    +0.003 C 
ATOM     20  C   UNL     1       8.717  34.154   9.547  0.00  0.00    +0.019 C 
ATOM     21  C   UNL     1       8.748  32.742  10.166  0.00  0.00    +0.058 C 
ATOM     22  N   UNL     1       7.404  32.161  10.039  0.00  0.00    -0.299 NA
ATOM     23  C   UNL     1       7.197  30.992  10.888  0.00  0.00    +0.105 C 
ATOM     24  C   UNL     1       9.847  31.837   9.577  0.00  0.00    +0.041 C 
ENDBRANCH   3  15
TORSDOF 2
ENDMDL
MODEL 8
REMARK VINA RESULT:      -6.7     11.581     15.363
REMARK  Name = 5284566
REMARK  4 active torsions:
REMARK  status: ('A' for Active; 'I' for Inactive)
REMARK    1  A    between atoms: N_2  and  C_14
REMARK    2  A    between atoms: N_3  and  C_10
REMARK    3  A    between atoms: N_5  and  C_21
REMARK    4  A    between atoms: C_15  and  C_16
REMARK                            x       y       z     vdW  Elec       q    Type
REMARK                         _______ _______ _______ _____ _____    ______ ____
ROOT
ATOM      1  O   UNL     1      14.404  27.289  -6.800  0.00  0.00    -0.268 OA
ATOM      2  C   UNL     1      14.494  28.186  -7.637  0.00  0.00    +0.265 C 
ATOM      3  N   UNL     1      13.565  29.214  -7.753  0.00  0.00    -0.307 N 
ATOM      4  H   UNL     1      13.730  29.957  -8.427  0.00  0.00    +0.149 HD
ENDROOT
BRANCH   2   5
ATOM      5  C   UNL     1      15.629  28.252  -8.568  0.00  0.00    +0.155 A 
ATOM      6  C   UNL     1      16.579  27.260  -8.790  0.00  0.00    +0.032 A 
ATOM      7  C   UNL     1      16.851  25.965  -8.318  0.00  0.00    +0.012 A 
ATOM      8  C   UNL     1      17.962  25.284  -8.833  0.00  0.00    +0.001 A 
ATOM      9  C   UNL     1      18.784  25.876  -9.794  0.00  0.00    +0.002 A 
ATOM     10  C   UNL     1      18.526  27.164 -10.273  0.00  0.00    +0.028 A 
ATOM     11  C   UNL     1      17.414  27.825  -9.748  0.00  0.00    +0.069 A 
ATOM     12  N   UNL     1      16.892  29.066  -9.993  0.00  0.00    -0.266 N 
ATOM     13  C   UNL     1      17.404  30.049 -10.919  0.00  0.00    +0.173 C 
ATOM     14  N   UNL     1      15.791  29.352  -9.278  0.00  0.00    -0.166 NA
ENDBRANCH   2   5
BRANCH   3  15
ATOM     15  C   UNL     1      12.410  29.305  -6.888  0.00  0.00    +0.076 C 
ATOM     16  C   UNL     1      12.544  30.490  -5.927  0.00  0.00    +0.041 C 
ATOM     17  C   UNL     1      11.228  30.902  -5.238  0.00  0.00    +0.058 C 
ATOM     18  C   UNL     1      10.764  29.907  -4.155  0.00  0.00    +0.019 C 
ATOM     19  C   UNL     1      10.208  28.591  -4.698  0.00  0.00    +0.003 C 
ATOM     20  C   UNL     1       9.346  28.790  -5.944  0.00  0.00    +0.019 C 
ATOM     21  C   UNL     1       9.884  29.842  -6.934  0.00  0.00    +0.058 C 
ATOM     22  N   UNL     1      10.122  31.086  -6.188  0.00  0.00    -0.299 NA
ATOM     23  C   UNL     1      10.289  32.252  -7.049  0.00  0.00    +0.105 C 
ATOM     24  C   UNL     1      11.124  29.370  -7.718  0.00  0.00    +0.041 C 
ENDBRANCH   3  15
TORSDOF 2
ENDMDL
MODEL 9
REMARK VINA RESULT:      -6.7      2.697      4.793
REMARK  Name = 5284566
REMARK  4 active torsions:
REMARK  status: ('A' for Active; 'I' for Inactive)
REMARK    1  A    between atoms: N_2  and  C_14
REMARK    2  A    between atoms: N_3  and  C_10
REMARK    3  A    between atoms: N_5  and  C_21
REMARK    4  A    between atoms: C_15  and  C_16
REMARK                            x       y       z     vdW  Elec       q    Type
REMARK                         _______ _______ _______ _____ _____    ______ ____
ROOT
ATOM      1  O   UNL     1       9.988  29.431   6.997  0.00  0.00    -0.268 OA
ATOM      2  C   UNL     1      10.618  30.282   7.625  0.00  0.00    +0.265 C 
ATOM      3  N   UNL     1      12.005  30.284   7.719  0.00  0.00    -0.307 N 
ATOM      4  H   UNL     1      12.467  31.049   8.203  0.00  0.00    +0.149 HD
ENDROOT
BRANCH   2   5
ATOM      5  C   UNL     1       9.936  31.392   8.303  0.00  0.00    +0.155 A 
ATOM      6  C   UNL     1       9.218  32.419   7.698  0.00  0.00    +0.032 A 
ATOM      7  C   UNL     1       8.869  32.808   6.393  0.00  0.00    +0.012 A 
ATOM      8  C   UNL     1       8.097  33.964   6.222  0.00  0.00    +0.001 A 
ATOM      9  C   UNL     1       7.681  34.717   7.322  0.00  0.00    +0.002 A 
ATOM     10  C   UNL     1       8.021  34.344   8.626  0.00  0.00    +0.028 A 
ATOM     11  C   UNL     1       8.790  33.188   8.774  0.00  0.00    +0.069 A 
ATOM     12  N   UNL     1       9.284  32.559   9.885  0.00  0.00    -0.266 N 
ATOM     13  C   UNL     1       9.111  32.971  11.258  0.00  0.00    +0.173 C 
ATOM     14  N   UNL     1       9.993  31.449   9.619  0.00  0.00    -0.166 NA
ENDBRANCH   2   5
BRANCH   3  15
ATOM     15  C   UNL     1      12.819  29.276   7.079  0.00  0.00    +0.076 C 
ATOM     16  C   UNL     1      14.297  29.678   7.099  0.00  0.00    +0.041 C 
ATOM     17  C   UNL     1      15.274  28.526   6.794  0.00  0.00    +0.058 C 
ATOM     18  C   UNL     1      15.276  28.097   5.312  0.00  0.00    +0.019 C 
ATOM     19  C   UNL     1      14.035  27.321   4.875  0.00  0.00    +0.003 C 
ATOM     20  C   UNL     1      13.560  26.328   5.935  0.00  0.00    +0.019 C 
ATOM     21  C   UNL     1      13.647  26.849   7.383  0.00  0.00    +0.058 C 
ATOM     22  N   UNL     1      15.017  27.331   7.610  0.00  0.00    -0.299 NA
ATOM     23  C   UNL     1      15.337  27.517   9.022  0.00  0.00    +0.105 C 
ATOM     24  C   UNL     1      12.578  27.906   7.721  0.00  0.00    +0.041 C 
ENDBRANCH   3  15
TORSDOF 2
ENDMDL
MODEL 10
REMARK VINA RESULT:      -6.6      4.553      8.304
REMARK  Name = 5284566
REMARK  4 active torsions:
REMARK  status: ('A' for Active; 'I' for Inactive)
REMARK    1  A    between atoms: N_2  and  C_14
REMARK    2  A    between atoms: N_3  and  C_10
REMARK    3  A    between atoms: N_5  and  C_21
REMARK    4  A    between atoms: C_15  and  C_16
REMARK                            x       y       z     vdW  Elec       q    Type
REMARK                         _______ _______ _______ _____ _____    ______ ____
ROOT
ATOM      1  O   UNL     1      10.315  31.509  11.439  0.00  0.00    -0.268 OA
ATOM      2  C   UNL     1      11.242  31.162  10.708  0.00  0.00    +0.265 C 
ATOM      3  N   UNL     1      12.478  30.750  11.192  0.00  0.00    -0.307 N 
ATOM      4  H   UNL     1      13.182  30.420  10.536  0.00  0.00    +0.149 HD
ENDROOT
BRANCH   2   5
ATOM      5  C   UNL     1      11.092  31.129   9.246  0.00  0.00    +0.155 A 
ATOM      6  C   UNL     1      11.859  30.391   8.349  0.00  0.00    +0.032 A 
ATOM      7  C   UNL     1      12.938  29.494   8.406  0.00  0.00    +0.012 A 
ATOM      8  C   UNL     1      13.426  28.956   7.209  0.00  0.00    +0.001 A 
ATOM      9  C   UNL     1      12.855  29.302   5.982  0.00  0.00    +0.002 A 
ATOM     10  C   UNL     1      11.781  30.195   5.909  0.00  0.00    +0.028 A 
ATOM     11  C   UNL     1      11.309  30.718   7.115  0.00  0.00    +0.069 A 
ATOM     12  N   UNL     1      10.297  31.597   7.392  0.00  0.00    -0.266 N 
ATOM     13  C   UNL     1       9.417  32.229   6.436  0.00  0.00    +0.173 C 
ATOM     14  N   UNL     1      10.144  31.865   8.700  0.00  0.00    -0.166 NA
ENDBRANCH   2   5
BRANCH   3  15
ATOM     15  C   UNL     1      12.770  30.697  12.606  0.00  0.00    +0.076 C 
ATOM     16  C   UNL     1      12.116  29.470  13.250  0.00  0.00    +0.041 C 
ATOM     17  C   UNL     1      12.667  29.114  14.645  0.00  0.00    +0.058 C 
ATOM     18  C   UNL     1      12.222  30.093  15.750  0.00  0.00    +0.019 C 
ATOM     19  C   UNL     1      12.903  31.461  15.697  0.00  0.00    +0.003 C 
ATOM     20  C   UNL     1      14.386  31.364  15.343  0.00  0.00    +0.019 C 
ATOM     21  C   UNL     1      14.718  30.319  14.259  0.00  0.00    +0.058 C 
ATOM     22  N   UNL     1      14.134  29.035  14.673  0.00  0.00    -0.299 NA
ATOM     23  C   UNL     1      14.666  27.894  13.934  0.00  0.00    +0.105 C 
ATOM     24  C   UNL     1      14.282  30.744  12.843  0.00  0.00    +0.041 C 
ENDBRANCH   3  15
TORSDOF 2
ENDMDL
MODEL 11
REMARK VINA RESULT:      -6.6      4.756      8.402
REMARK  Name = 5284566
REMARK  4 active torsions:
REMARK  status: ('A' for Active; 'I' for Inactive)
REMARK    1  A    between atoms: N_2  and  C_14
REMARK    2  A    between atoms: N_3  and  C_10
REMARK    3  A    between atoms: N_5  and  C_21
REMARK    4  A    between atoms: C_15  and  C_16
REMARK                            x       y       z     vdW  Elec       q    Type
REMARK                         _______ _______ _______ _____ _____    ______ ____
ROOT
ATOM      1  O   UNL     1      10.315  31.653  11.594  0.00  0.00    -0.268 OA
ATOM      2  C   UNL     1      11.209  31.241  10.855  0.00  0.00    +0.265 C 
ATOM      3  N   UNL     1      12.426  30.765  11.328  0.00  0.00    -0.307 N 
ATOM      4  H   UNL     1      13.099  30.384  10.667  0.00  0.00    +0.149 HD
ENDROOT
BRANCH   2   5
ATOM      5  C   UNL     1      11.034  31.193   9.397  0.00  0.00    +0.155 A 
ATOM      6  C   UNL     1      10.157  31.965   8.641  0.00  0.00    +0.032 A 
ATOM      7  C   UNL     1       9.203  32.970   8.870  0.00  0.00    +0.012 A 
ATOM      8  C   UNL     1       8.512  33.502   7.774  0.00  0.00    +0.001 A 
ATOM      9  C   UNL     1       8.763  33.044   6.478  0.00  0.00    +0.002 A 
ATOM     10  C   UNL     1       9.709  32.044   6.234  0.00  0.00    +0.028 A 
ATOM     11  C   UNL     1      10.387  31.529   7.341  0.00  0.00    +0.069 A 
ATOM     12  N   UNL     1      11.352  30.564   7.450  0.00  0.00    -0.266 N 
ATOM     13  C   UNL     1      11.936  29.803   6.370  0.00  0.00    +0.173 C 
ATOM     14  N   UNL     1      11.766  30.340   8.708  0.00  0.00    -0.166 NA
ENDBRANCH   2   5
BRANCH   3  15
ATOM     15  C   UNL     1      12.737  30.718  12.739  0.00  0.00    +0.076 C 
ATOM     16  C   UNL     1      12.089  29.496  13.397  0.00  0.00    +0.041 C 
ATOM     17  C   UNL     1      12.658  29.146  14.786  0.00  0.00    +0.058 C 
ATOM     18  C   UNL     1      12.231  30.132  15.892  0.00  0.00    +0.019 C 
ATOM     19  C   UNL     1      12.914  31.497  15.823  0.00  0.00    +0.003 C 
ATOM     20  C   UNL     1      14.392  31.395  15.450  0.00  0.00    +0.019 C 
ATOM     21  C   UNL     1      14.707  30.344  14.366  0.00  0.00    +0.058 C 
ATOM     22  N   UNL     1      14.125  29.064  14.795  0.00  0.00    -0.299 NA
ATOM     23  C   UNL     1      14.644  27.918  14.054  0.00  0.00    +0.105 C 
ATOM     24  C   UNL     1      14.253  30.763  12.955  0.00  0.00    +0.041 C 
ENDBRANCH   3  15
TORSDOF 2
ENDMDL
MODEL 12
REMARK VINA RESULT:      -6.5      2.552      8.347
REMARK  Name = 5284566
REMARK  4 active torsions:
REMARK  status: ('A' for Active; 'I' for Inactive)
REMARK    1  A    between atoms: N_2  and  C_14
REMARK    2  A    between atoms: N_3  and  C_10
REMARK    3  A    between atoms: N_5  and  C_21
REMARK    4  A    between atoms: C_15  and  C_16
REMARK                            x       y       z     vdW  Elec       q    Type
REMARK                         _______ _______ _______ _____ _____    ______ ____
ROOT
ATOM      1  O   UNL     1      11.372  30.019   5.803  0.00  0.00    -0.268 OA
ATOM      2  C   UNL     1      11.754  29.805   6.953  0.00  0.00    +0.265 C 
ATOM      3  N   UNL     1      11.191  30.416   8.068  0.00  0.00    -0.307 N 
ATOM      4  H   UNL     1      11.515  30.150   8.994  0.00  0.00    +0.149 HD
ENDROOT
BRANCH   2   5
ATOM      5  C   UNL     1      12.833  28.847   7.234  0.00  0.00    +0.155 A 
ATOM      6  C   UNL     1      13.191  27.750   6.456  0.00  0.00    +0.032 A 
ATOM      7  C   UNL     1      12.770  27.151   5.257  0.00  0.00    +0.012 A 
ATOM      8  C   UNL     1      13.438  26.003   4.811  0.00  0.00    +0.001 A 
ATOM      9  C   UNL     1      14.499  25.462   5.540  0.00  0.00    +0.002 A 
ATOM     10  C   UNL     1      14.928  26.047   6.736  0.00  0.00    +0.028 A 
ATOM     11  C   UNL     1      14.250  27.190   7.162  0.00  0.00    +0.069 A 
ATOM     12  N   UNL     1      14.412  27.989   8.262  0.00  0.00    -0.266 N 
ATOM     13  C   UNL     1      15.393  27.825   9.309  0.00  0.00    +0.173 C 
ATOM     14  N   UNL     1      13.550  29.017   8.327  0.00  0.00    -0.166 NA
ENDBRANCH   2   5
BRANCH   3  15
ATOM     15  C   UNL     1      10.101  31.358   7.958  0.00  0.00    +0.076 C 
ATOM     16  C   UNL     1       8.760  30.627   7.842  0.00  0.00    +0.041 C 
ATOM     17  C   UNL     1       7.527  31.515   8.101  0.00  0.00    +0.058 C 
ATOM     18  C   UNL     1       7.233  32.507   6.958  0.00  0.00    +0.019 C 
ATOM     19  C   UNL     1       8.209  33.680   6.869  0.00  0.00    +0.003 C 
ATOM     20  C   UNL     1       8.598  34.223   8.243  0.00  0.00    +0.019 C 
ATOM     21  C   UNL     1       8.822  33.142   9.319  0.00  0.00    +0.058 C 
ATOM     22  N   UNL     1       7.630  32.281   9.350  0.00  0.00    -0.299 NA
ATOM     23  C   UNL     1       7.552  31.448  10.547  0.00  0.00    +0.105 C 
ATOM     24  C   UNL     1      10.128  32.346   9.128  0.00  0.00    +0.041 C 
ENDBRANCH   3  15
TORSDOF 2
ENDMDL
MODEL 13
REMARK VINA RESULT:      -6.5      4.805      8.996
REMARK  Name = 5284566
REMARK  4 active torsions:
REMARK  status: ('A' for Active; 'I' for Inactive)
REMARK    1  A    between atoms: N_2  and  C_14
REMARK    2  A    between atoms: N_3  and  C_10
REMARK    3  A    between atoms: N_5  and  C_21
REMARK    4  A    between atoms: C_15  and  C_16
REMARK                            x       y       z     vdW  Elec       q    Type
REMARK                         _______ _______ _______ _____ _____    ______ ____
ROOT
ATOM      1  O   UNL     1      14.230  30.350  10.952  0.00  0.00    -0.268 OA
ATOM      2  C   UNL     1      13.007  30.350  10.819  0.00  0.00    +0.265 C 
ATOM      3  N   UNL     1      12.125  30.366  11.893  0.00  0.00    -0.307 N 
ATOM      4  H   UNL     1      11.126  30.424  11.712  0.00  0.00    +0.149 HD
ENDROOT
BRANCH   2   5
ATOM      5  C   UNL     1      12.384  30.366   9.488  0.00  0.00    +0.155 A 
ATOM      6  C   UNL     1      12.838  29.704   8.351  0.00  0.00    +0.032 A 
ATOM      7  C   UNL     1      13.908  28.863   8.002  0.00  0.00    +0.012 A 
ATOM      8  C   UNL     1      13.992  28.398   6.683  0.00  0.00    +0.001 A 
ATOM      9  C   UNL     1      13.036  28.762   5.733  0.00  0.00    +0.002 A 
ATOM     10  C   UNL     1      11.966  29.599   6.064  0.00  0.00    +0.028 A 
ATOM     11  C   UNL     1      11.900  30.050   7.384  0.00  0.00    +0.069 A 
ATOM     12  N   UNL     1      11.005  30.864   8.025  0.00  0.00    -0.266 N 
ATOM     13  C   UNL     1       9.837  31.485   7.446  0.00  0.00    +0.173 C 
ATOM     14  N   UNL     1      11.282  31.072   9.323  0.00  0.00    -0.166 NA
ENDBRANCH   2   5
BRANCH   3  15
ATOM     15  C   UNL     1      12.584  30.384  13.263  0.00  0.00    +0.076 C 
ATOM     16  C   UNL     1      11.842  31.453  14.071  0.00  0.00    +0.041 C 
ATOM     17  C   UNL     1      11.977  31.303  15.599  0.00  0.00    +0.058 C 
ATOM     18  C   UNL     1      13.372  31.681  16.134  0.00  0.00    +0.019 C 
ATOM     19  C   UNL     1      14.469  30.665  15.817  0.00  0.00    +0.003 C 
ATOM     20  C   UNL     1      13.987  29.221  15.951  0.00  0.00    +0.019 C 
ATOM     21  C   UNL     1      12.560  28.972  15.425  0.00  0.00    +0.058 C 
ATOM     22  N   UNL     1      11.664  29.946  16.066  0.00  0.00    -0.299 NA
ATOM     23  C   UNL     1      10.251  29.601  15.938  0.00  0.00    +0.105 C 
ATOM     24  C   UNL     1      12.460  28.991  13.888  0.00  0.00    +0.041 C 
ENDBRANCH   3  15
TORSDOF 2
ENDMDL
MODEL 14
REMARK VINA RESULT:      -6.4      3.855      9.135
REMARK  Name = 5284566
REMARK  4 active torsions:
REMARK  status: ('A' for Active; 'I' for Inactive)
REMARK    1  A    between atoms: N_2  and  C_14
REMARK    2  A    between atoms: N_3  and  C_10
REMARK    3  A    between atoms: N_5  and  C_21
REMARK    4  A    between atoms: C_15  and  C_16
REMARK                            x       y       z     vdW  Elec       q    Type
REMARK                         _______ _______ _______ _____ _____    ______ ____
ROOT
ATOM      1  O   UNL     1       9.000  29.959   7.175  0.00  0.00    -0.268 OA
ATOM      2  C   UNL     1       9.840  30.782   7.538  0.00  0.00    +0.265 C 
ATOM      3  N   UNL     1       9.581  32.145   7.624  0.00  0.00    -0.307 N 
ATOM      4  H   UNL     1      10.300  32.763   7.988  0.00  0.00    +0.149 HD
ENDROOT
BRANCH   2   5
ATOM      5  C   UNL     1      11.190  30.367   7.945  0.00  0.00    +0.155 A 
ATOM      6  C   UNL     1      12.094  29.626   7.190  0.00  0.00    +0.032 A 
ATOM      7  C   UNL     1      12.135  29.033   5.917  0.00  0.00    +0.012 A 
ATOM      8  C   UNL     1      13.296  28.347   5.536  0.00  0.00    +0.001 A 
ATOM      9  C   UNL     1      14.389  28.251   6.399  0.00  0.00    +0.002 A 
ATOM     10  C   UNL     1      14.361  28.835   7.670  0.00  0.00    +0.028 A 
ATOM     11  C   UNL     1      13.196  29.515   8.030  0.00  0.00    +0.069 A 
ATOM     12  N   UNL     1      12.848  30.183   9.172  0.00  0.00    -0.266 N 
ATOM     13  C   UNL     1      13.662  30.356  10.353  0.00  0.00    +0.173 C 
ATOM     14  N   UNL     1      11.616  30.718   9.143  0.00  0.00    -0.166 NA
ENDBRANCH   2   5
BRANCH   3  15
ATOM     15  C   UNL     1       8.291  32.703   7.288  0.00  0.00    +0.076 C 
ATOM     16  C   UNL     1       7.441  32.903   8.547  0.00  0.00    +0.041 C 
ATOM     17  C   UNL     1       6.223  33.828   8.353  0.00  0.00    +0.058 C 
ATOM     18  C   UNL     1       5.088  33.185   7.530  0.00  0.00    +0.019 C 
ATOM     19  C   UNL     1       5.382  33.057   6.036  0.00  0.00    +0.003 C 
ATOM     20  C   UNL     1       6.106  34.280   5.474  0.00  0.00    +0.019 C 
ATOM     21  C   UNL     1       7.189  34.865   6.403  0.00  0.00    +0.058 C 
ATOM     22  N   UNL     1       6.576  35.105   7.718  0.00  0.00    -0.299 NA
ATOM     23  C   UNL     1       7.374  35.976   8.576  0.00  0.00    +0.105 C 
ATOM     24  C   UNL     1       8.460  33.998   6.487  0.00  0.00    +0.041 C 
ENDBRANCH   3  15
TORSDOF 2
ENDMDL
MODEL 15
REMARK VINA RESULT:      -6.2     16.819     19.808
REMARK  Name = 5284566
REMARK  4 active torsions:
REMARK  status: ('A' for Active; 'I' for Inactive)
REMARK    1  A    between atoms: N_2  and  C_14
REMARK    2  A    between atoms: N_3  and  C_10
REMARK    3  A    between atoms: N_5  and  C_21
REMARK    4  A    between atoms: C_15  and  C_16
REMARK                            x       y       z     vdW  Elec       q    Type
REMARK                         _______ _______ _______ _____ _____    ______ ____
ROOT
ATOM      1  O   UNL     1      14.641  12.673  -8.152  0.00  0.00    -0.268 OA
ATOM      2  C   UNL     1      14.552  12.879  -6.942  0.00  0.00    +0.265 C 
ATOM      3  N   UNL     1      13.545  13.650  -6.374  0.00  0.00    -0.307 N 
ATOM      4  H   UNL     1      13.496  13.732  -5.362  0.00  0.00    +0.149 HD
ENDROOT
BRANCH   2   5
ATOM      5  C   UNL     1      15.506  12.285  -5.995  0.00  0.00    +0.155 A 
ATOM      6  C   UNL     1      16.695  12.853  -5.548  0.00  0.00    +0.032 A 
ATOM      7  C   UNL     1      17.413  14.043  -5.753  0.00  0.00    +0.012 A 
ATOM      8  C   UNL     1      18.624  14.220  -5.072  0.00  0.00    +0.001 A 
ATOM      9  C   UNL     1      19.112  13.237  -4.208  0.00  0.00    +0.002 A 
ATOM     10  C   UNL     1      18.408  12.047  -3.994  0.00  0.00    +0.028 A 
ATOM     11  C   UNL     1      17.203  11.891  -4.682  0.00  0.00    +0.069 A 
ATOM     12  N   UNL     1      16.290  10.872  -4.700  0.00  0.00    -0.266 N 
ATOM     13  C   UNL     1      16.364   9.634  -3.958  0.00  0.00    +0.173 C 
ATOM     14  N   UNL     1      15.235  11.092  -5.502  0.00  0.00    -0.166 NA
ENDBRANCH   2   5
BRANCH   3  15
ATOM     15  C   UNL     1      12.514  14.275  -7.171  0.00  0.00    +0.076 C 
ATOM     16  C   UNL     1      11.170  14.251  -6.437  0.00  0.00    +0.041 C 
ATOM     17  C   UNL     1      10.111  15.209  -7.017  0.00  0.00    +0.058 C 
ATOM     18  C   UNL     1       9.531  14.740  -8.367  0.00  0.00    +0.019 C 
ATOM     19  C   UNL     1      10.485  14.884  -9.552  0.00  0.00    +0.003 C 
ATOM     20  C   UNL     1      11.292  16.180  -9.500  0.00  0.00    +0.019 C 
ATOM     21  C   UNL     1      11.781  16.574  -8.092  0.00  0.00    +0.058 C 
ATOM     22  N   UNL     1      10.618  16.577  -7.193  0.00  0.00    -0.299 NA
ATOM     23  C   UNL     1      10.866  17.267  -5.931  0.00  0.00    +0.105 C 
ATOM     24  C   UNL     1      12.934  15.692  -7.573  0.00  0.00    +0.041 C 
ENDBRANCH   3  15
TORSDOF 2
ENDMDL
MODEL 16
REMARK VINA RESULT:      -6.2     11.709     13.969
REMARK  Name = 5284566
REMARK  4 active torsions:
REMARK  status: ('A' for Active; 'I' for Inactive)
REMARK    1  A    between atoms: N_2  and  C_14
REMARK    2  A    between atoms: N_3  and  C_10
REMARK    3  A    between atoms: N_5  and  C_21
REMARK    4  A    between atoms: C_15  and  C_16
REMARK                            x       y       z     vdW  Elec       q    Type
REMARK                         _______ _______ _______ _____ _____    ______ ____
ROOT
ATOM      1  O   UNL     1       9.699  34.360  -4.787  0.00  0.00    -0.268 OA
ATOM      2  C   UNL     1       9.274  33.642  -5.692  0.00  0.00    +0.265 C 
ATOM      3  N   UNL     1       9.117  32.267  -5.561  0.00  0.00    -0.307 N 
ATOM      4  H   UNL     1       8.705  31.742  -6.327  0.00  0.00    +0.149 HD
ENDROOT
BRANCH   2   5
ATOM      5  C   UNL     1       8.864  34.206  -6.986  0.00  0.00    +0.155 A 
ATOM      6  C   UNL     1       9.687  34.837  -7.914  0.00  0.00    +0.032 A 
ATOM      7  C   UNL     1      11.046  35.171  -8.032  0.00  0.00    +0.012 A 
ATOM      8  C   UNL     1      11.475  35.836  -9.188  0.00  0.00    +0.001 A 
ATOM      9  C   UNL     1      10.573  36.162 -10.203  0.00  0.00    +0.002 A 
ATOM     10  C   UNL     1       9.217  35.837 -10.100  0.00  0.00    +0.028 A 
ATOM     11  C   UNL     1       8.811  35.174  -8.940  0.00  0.00    +0.069 A 
ATOM     12  N   UNL     1       7.585  34.722  -8.531  0.00  0.00    -0.266 N 
ATOM     13  C   UNL     1       6.340  34.832  -9.255  0.00  0.00    +0.173 C 
ATOM     14  N   UNL     1       7.594  34.122  -7.329  0.00  0.00    -0.166 NA
ENDBRANCH   2   5
BRANCH   3  15
ATOM     15  C   UNL     1       9.446  31.570  -4.339  0.00  0.00    +0.076 C 
ATOM     16  C   UNL     1       8.205  30.891  -3.750  0.00  0.00    +0.041 C 
ATOM     17  C   UNL     1       8.511  29.826  -2.679  0.00  0.00    +0.058 C 
ATOM     18  C   UNL     1       8.984  30.420  -1.337  0.00  0.00    +0.019 C 
ATOM     19  C   UNL     1      10.405  30.981  -1.358  0.00  0.00    +0.003 C 
ATOM     20  C   UNL     1      11.367  30.111  -2.164  0.00  0.00    +0.019 C 
ATOM     21  C   UNL     1      10.771  29.533  -3.464  0.00  0.00    +0.058 C 
ATOM     22  N   UNL     1       9.516  28.849  -3.121  0.00  0.00    -0.299 NA
ATOM     23  C   UNL     1       9.036  27.962  -4.177  0.00  0.00    +0.105 C 
ATOM     24  C   UNL     1      10.593  30.583  -4.578  0.00  0.00    +0.041 C 
ENDBRANCH   3  15
TORSDOF 2
ENDMDL
MODEL 17
REMARK VINA RESULT:      -6.1     17.023     18.870
REMARK  Name = 5284566
REMARK  4 active torsions:
REMARK  status: ('A' for Active; 'I' for Inactive)
REMARK    1  A    between atoms: N_2  and  C_14
REMARK    2  A    between atoms: N_3  and  C_10
REMARK    3  A    between atoms: N_5  and  C_21
REMARK    4  A    between atoms: C_15  and  C_16
REMARK                            x       y       z     vdW  Elec       q    Type
REMARK                         _______ _______ _______ _____ _____    ______ ____
ROOT
ATOM      1  O   UNL     1      14.186  14.071  -8.381  0.00  0.00    -0.268 OA
ATOM      2  C   UNL     1      13.835  13.900  -7.214  0.00  0.00    +0.265 C 
ATOM      3  N   UNL     1      14.729  13.647  -6.180  0.00  0.00    -0.307 N 
ATOM      4  H   UNL     1      14.378  13.574  -5.229  0.00  0.00    +0.149 HD
ENDROOT
BRANCH   2   5
ATOM      5  C   UNL     1      12.421  13.986  -6.821  0.00  0.00    +0.155 A 
ATOM      6  C   UNL     1      11.721  15.141  -6.487  0.00  0.00    +0.032 A 
ATOM      7  C   UNL     1      11.985  16.517  -6.387  0.00  0.00    +0.012 A 
ATOM      8  C   UNL     1      10.946  17.373  -5.999  0.00  0.00    +0.001 A 
ATOM      9  C   UNL     1       9.673  16.872  -5.717  0.00  0.00    +0.002 A 
ATOM     10  C   UNL     1       9.395  15.504  -5.811  0.00  0.00    +0.028 A 
ATOM     11  C   UNL     1      10.445  14.670  -6.200  0.00  0.00    +0.069 A 
ATOM     12  N   UNL     1      10.511  13.315  -6.386  0.00  0.00    -0.266 N 
ATOM     13  C   UNL     1       9.434  12.368  -6.214  0.00  0.00    +0.173 C 
ATOM     14  N   UNL     1      11.719  12.871  -6.770  0.00  0.00    -0.166 NA
ENDBRANCH   2   5
BRANCH   3  15
ATOM     15  C   UNL     1      16.155  13.565  -6.401  0.00  0.00    +0.076 C 
ATOM     16  C   UNL     1      16.922  14.211  -5.244  0.00  0.00    +0.041 C 
ATOM     17  C   UNL     1      18.419  13.847  -5.192  0.00  0.00    +0.058 C 
ATOM     18  C   UNL     1      19.255  14.524  -6.296  0.00  0.00    +0.019 C 
ATOM     19  C   UNL     1      19.041  13.950  -7.696  0.00  0.00    +0.003 C 
ATOM     20  C   UNL     1      18.910  12.428  -7.691  0.00  0.00    +0.019 C 
ATOM     21  C   UNL     1      18.091  11.860  -6.515  0.00  0.00    +0.058 C 
ATOM     22  N   UNL     1      18.655  12.399  -5.269  0.00  0.00    -0.299 NA
ATOM     23  C   UNL     1      18.216  11.678  -4.078  0.00  0.00    +0.105 C 
ATOM     24  C   UNL     1      16.576  12.112  -6.642  0.00  0.00    +0.041 C 
ENDBRANCH   3  15
TORSDOF 2
ENDMDL
