MODEL 1
REMARK VINA RESULT:      -9.5      0.000      0.000
REMARK  Name = 6444692
REMARK  11 active torsions:
REMARK  status: ('A' for Active; 'I' for Inactive)
REMARK    1  A    between atoms: O_4  and  C_19
REMARK    2  A    between atoms: O_4  and  C_21
REMARK    3  A    between atoms: N_6  and  C_13
REMARK    4  A    between atoms: C_10  and  C_11
REMARK    5  A    between atoms: C_10  and  C_12
REMARK    6  A    between atoms: C_11  and  C_13
REMARK    7  A    between atoms: C_12  and  C_14
REMARK    8  A    between atoms: C_21  and  C_23
REMARK    9  A    between atoms: C_24  and  C_28
REMARK   10  A    between atoms: C_25  and  C_31
REMARK   11  A    between atoms: C_27  and  C_34
REMARK                            x       y       z     vdW  Elec       q    Type
REMARK                         _______ _______ _______ _____ _____    ______ ____
ROOT
ATOM      1  C   UNL     1      15.895  26.584   8.883  0.00  0.00    +0.220 A 
ATOM      2  N   UNL     1      15.415  27.555   9.627  0.00  0.00    -0.211 NA
ATOM      3  C   UNL     1      15.986  27.319  10.852  0.00  0.00    +0.117 A 
ATOM      4  C   UNL     1      16.790  26.209  10.790  0.00  0.00    +0.224 A 
ATOM      5  O   UNL     1      16.739  25.724   9.518  0.00  0.00    -0.444 OA
ENDROOT
BRANCH   1   7
ATOM      6  C   UNL     1      16.109  25.426   6.739  0.00  0.00    +0.013 C 
ATOM      7  C   UNL     1      15.586  26.406   7.513  0.00  0.00    +0.068 C 
BRANCH   6  11
ATOM      8  C   UNL     1      15.155  24.797   2.631  0.00  0.00    +0.055 A 
ATOM      9  C   UNL     1      14.138  25.038   3.554  0.00  0.00    +0.013 A 
ATOM     10  C   UNL     1      14.450  25.245   4.897  0.00  0.00    +0.008 A 
ATOM     11  C   UNL     1      15.780  25.209   5.319  0.00  0.00    -0.025 A 
ATOM     12  C   UNL     1      16.797  24.968   4.396  0.00  0.00    +0.008 A 
ATOM     13  C   UNL     1      16.485  24.762   3.051  0.00  0.00    +0.013 A 
BRANCH   8  15
ATOM     14  F   UNL     1      13.889  25.450   0.710  0.00  0.00    -0.166 F 
ATOM     15  C   UNL     1      14.821  24.578   1.194  0.00  0.00    +0.417 C 
ATOM     16  F   UNL     1      15.906  24.710   0.376  0.00  0.00    -0.166 F 
ATOM     17  F   UNL     1      14.315  23.335   0.934  0.00  0.00    -0.166 F 
ENDBRANCH   8  15
ENDBRANCH   6  11
ENDBRANCH   1   7
BRANCH   3  18
ATOM     18  C   UNL     1      15.703  28.206  12.017  0.00  0.00    +0.287 C 
BRANCH  18  19
ATOM     19  O   UNL     1      15.550  29.569  11.624  0.00  0.00    -0.486 OA
BRANCH  19  20
ATOM     20  C   UNL     1      14.283  30.010  11.396  0.00  0.00    +0.121 A 
ATOM     21  C   UNL     1      13.838  30.211  10.089  0.00  0.00    +0.046 A 
ATOM     22  C   UNL     1      12.540  30.663   9.856  0.00  0.00    +0.007 A 
ATOM     23  C   UNL     1      11.686  30.917  10.929  0.00  0.00    -0.047 A 
ATOM     24  C   UNL     1      12.131  30.717  12.236  0.00  0.00    +0.007 A 
ATOM     25  C   UNL     1      13.429  30.263  12.470  0.00  0.00    +0.046 A 
BRANCH  23  26
ATOM     26  C   UNL     1      10.283  31.407  10.677  0.00  0.00    +0.035 C 
BRANCH  26  27
ATOM     27  C   UNL     1      10.191  32.479   9.585  0.00  0.00    +0.006 C 
BRANCH  27  28
ATOM     28  C   UNL     1       9.272  32.073   8.426  0.00  0.00    +0.024 C 
BRANCH  28  29
ATOM     29  C   UNL     1       9.958  32.163   7.061  0.00  0.00    +0.145 C 
BRANCH  29  30
ATOM     30  N   UNL     1      10.667  30.947   6.678  0.00  0.00    -0.252 N 
ATOM     31  C   UNL     1      11.765  30.840   5.882  0.00  0.00    +0.130 A 
ATOM     32  C   UNL     1      12.016  29.490   5.859  0.00  0.00    +0.156 A 
ATOM     33  N   UNL     1      11.088  28.838   6.621  0.00  0.00    -0.138 NA
ATOM     34  N   UNL     1      10.259  29.748   7.123  0.00  0.00    -0.066 NA
ENDBRANCH  29  30
ENDBRANCH  28  29
ENDBRANCH  27  28
ENDBRANCH  26  27
ENDBRANCH  23  26
ENDBRANCH  19  20
ENDBRANCH  18  19
ENDBRANCH   3  18
TORSDOF 11
ENDMDL
MODEL 2
REMARK VINA RESULT:      -9.4      7.222     10.770
REMARK  Name = 6444692
REMARK  11 active torsions:
REMARK  status: ('A' for Active; 'I' for Inactive)
REMARK    1  A    between atoms: O_4  and  C_19
REMARK    2  A    between atoms: O_4  and  C_21
REMARK    3  A    between atoms: N_6  and  C_13
REMARK    4  A    between atoms: C_10  and  C_11
REMARK    5  A    between atoms: C_10  and  C_12
REMARK    6  A    between atoms: C_11  and  C_13
REMARK    7  A    between atoms: C_12  and  C_14
REMARK    8  A    between atoms: C_21  and  C_23
REMARK    9  A    between atoms: C_24  and  C_28
REMARK   10  A    between atoms: C_25  and  C_31
REMARK   11  A    between atoms: C_27  and  C_34
REMARK                            x       y       z     vdW  Elec       q    Type
REMARK                         _______ _______ _______ _____ _____    ______ ____
ROOT
ATOM      1  C   UNL     1      13.862  23.951   1.911  0.00  0.00    +0.220 A 
ATOM      2  N   UNL     1      13.642  24.915   1.045  0.00  0.00    -0.211 NA
ATOM      3  C   UNL     1      13.281  24.237  -0.091  0.00  0.00    +0.117 A 
ATOM      4  C   UNL     1      13.300  22.884   0.143  0.00  0.00    +0.224 A 
ATOM      5  O   UNL     1      13.675  22.688   1.438  0.00  0.00    -0.444 OA
ENDROOT
BRANCH   1   7
ATOM      6  C   UNL     1      15.462  24.683   3.610  0.00  0.00    +0.013 C 
ATOM      7  C   UNL     1      14.264  24.164   3.251  0.00  0.00    +0.068 C 
BRANCH   6  11
ATOM      8  C   UNL     1      16.696  25.417   7.625  0.00  0.00    +0.055 A 
ATOM      9  C   UNL     1      15.399  25.735   7.224  0.00  0.00    +0.013 A 
ATOM     10  C   UNL     1      14.995  25.495   5.912  0.00  0.00    +0.008 A 
ATOM     11  C   UNL     1      15.889  24.936   4.997  0.00  0.00    -0.025 A 
ATOM     12  C   UNL     1      17.186  24.617   5.398  0.00  0.00    +0.008 A 
ATOM     13  C   UNL     1      17.591  24.857   6.711  0.00  0.00    +0.013 A 
BRANCH   8  15
ATOM     14  F   UNL     1      16.725  24.709   9.909  0.00  0.00    -0.166 F 
ATOM     15  C   UNL     1      17.127  25.673   9.029  0.00  0.00    +0.417 C 
ATOM     16  F   UNL     1      18.484  25.744   9.158  0.00  0.00    -0.166 F 
ATOM     17  F   UNL     1      16.649  26.845   9.543  0.00  0.00    -0.166 F 
ENDBRANCH   8  15
ENDBRANCH   6  11
ENDBRANCH   1   7
BRANCH   3  18
ATOM     18  C   UNL     1      12.939  24.964  -1.347  0.00  0.00    +0.287 C 
BRANCH  18  19
ATOM     19  O   UNL     1      11.529  25.056  -1.542  0.00  0.00    -0.486 OA
BRANCH  19  20
ATOM     20  C   UNL     1      11.012  26.298  -1.749  0.00  0.00    +0.121 A 
ATOM     21  C   UNL     1      11.431  27.370  -0.959  0.00  0.00    +0.046 A 
ATOM     22  C   UNL     1      10.900  28.641  -1.171  0.00  0.00    +0.007 A 
ATOM     23  C   UNL     1       9.950  28.843  -2.172  0.00  0.00    -0.047 A 
ATOM     24  C   UNL     1       9.531  27.772  -2.961  0.00  0.00    +0.007 A 
ATOM     25  C   UNL     1      10.062  26.500  -2.750  0.00  0.00    +0.046 A 
BRANCH  23  26
ATOM     26  C   UNL     1       9.376  30.218  -2.401  0.00  0.00    +0.035 C 
BRANCH  26  27
ATOM     27  C   UNL     1       9.225  30.583  -3.884  0.00  0.00    +0.006 C 
BRANCH  27  28
ATOM     28  C   UNL     1      10.542  31.043  -4.521  0.00  0.00    +0.024 C 
BRANCH  28  29
ATOM     29  C   UNL     1      10.878  30.285  -5.808  0.00  0.00    +0.145 C 
BRANCH  29  30
ATOM     30  N   UNL     1      12.166  29.602  -5.768  0.00  0.00    -0.252 N 
ATOM     31  C   UNL     1      13.272  29.867  -6.516  0.00  0.00    +0.130 A 
ATOM     32  C   UNL     1      14.187  28.943  -6.076  0.00  0.00    +0.156 A 
ATOM     33  N   UNL     1      13.624  28.167  -5.101  0.00  0.00    -0.138 NA
ATOM     34  N   UNL     1      12.375  28.584  -4.918  0.00  0.00    -0.066 NA
ENDBRANCH  29  30
ENDBRANCH  28  29
ENDBRANCH  27  28
ENDBRANCH  26  27
ENDBRANCH  23  26
ENDBRANCH  19  20
ENDBRANCH  18  19
ENDBRANCH   3  18
TORSDOF 11
ENDMDL
MODEL 3
REMARK VINA RESULT:      -9.3      4.758      9.219
REMARK  Name = 6444692
REMARK  11 active torsions:
REMARK  status: ('A' for Active; 'I' for Inactive)
REMARK    1  A    between atoms: O_4  and  C_19
REMARK    2  A    between atoms: O_4  and  C_21
REMARK    3  A    between atoms: N_6  and  C_13
REMARK    4  A    between atoms: C_10  and  C_11
REMARK    5  A    between atoms: C_10  and  C_12
REMARK    6  A    between atoms: C_11  and  C_13
REMARK    7  A    between atoms: C_12  and  C_14
REMARK    8  A    between atoms: C_21  and  C_23
REMARK    9  A    between atoms: C_24  and  C_28
REMARK   10  A    between atoms: C_25  and  C_31
REMARK   11  A    between atoms: C_27  and  C_34
REMARK                            x       y       z     vdW  Elec       q    Type
REMARK                         _______ _______ _______ _____ _____    ______ ____
ROOT
ATOM      1  C   UNL     1      14.609  27.565   7.532  0.00  0.00    +0.220 A 
ATOM      2  N   UNL     1      15.658  27.317   6.779  0.00  0.00    -0.211 NA
ATOM      3  C   UNL     1      16.167  26.166   7.325  0.00  0.00    +0.117 A 
ATOM      4  C   UNL     1      15.397  25.770   8.390  0.00  0.00    +0.224 A 
ATOM      5  O   UNL     1      14.384  26.669   8.532  0.00  0.00    -0.444 OA
ENDROOT
BRANCH   1   7
ATOM      6  C   UNL     1      12.415  28.567   7.125  0.00  0.00    +0.013 C 
ATOM      7  C   UNL     1      13.746  28.672   7.350  0.00  0.00    +0.068 C 
BRANCH   6  11
ATOM      8  C   UNL     1       9.759  31.867   6.646  0.00  0.00    +0.055 A 
ATOM      9  C   UNL     1      10.828  31.699   5.766  0.00  0.00    +0.013 A 
ATOM     10  C   UNL     1      11.696  30.619   5.922  0.00  0.00    +0.008 A 
ATOM     11  C   UNL     1      11.496  29.707   6.959  0.00  0.00    -0.025 A 
ATOM     12  C   UNL     1      10.428  29.876   7.839  0.00  0.00    +0.008 A 
ATOM     13  C   UNL     1       9.559  30.956   7.683  0.00  0.00    +0.013 A 
BRANCH   8  15
ATOM     14  F   UNL     1       9.251  33.931   5.550  0.00  0.00    -0.166 F 
ATOM     15  C   UNL     1       8.830  33.022   6.478  0.00  0.00    +0.417 C 
ATOM     16  F   UNL     1       7.583  32.639   6.076  0.00  0.00    -0.166 F 
ATOM     17  F   UNL     1       8.641  33.743   7.623  0.00  0.00    -0.166 F 
ENDBRANCH   8  15
ENDBRANCH   6  11
ENDBRANCH   1   7
BRANCH   3  18
ATOM     18  C   UNL     1      17.390  25.523   6.764  0.00  0.00    +0.287 C 
BRANCH  18  19
ATOM     19  O   UNL     1      17.110  24.238   6.211  0.00  0.00    -0.486 OA
BRANCH  19  20
ATOM     20  C   UNL     1      16.299  24.197   5.118  0.00  0.00    +0.121 A 
ATOM     21  C   UNL     1      15.070  23.540   5.186  0.00  0.00    +0.046 A 
ATOM     22  C   UNL     1      14.240  23.497   4.066  0.00  0.00    +0.007 A 
ATOM     23  C   UNL     1      14.639  24.110   2.878  0.00  0.00    -0.047 A 
ATOM     24  C   UNL     1      15.868  24.766   2.811  0.00  0.00    +0.007 A 
ATOM     25  C   UNL     1      16.697  24.810   3.931  0.00  0.00    +0.046 A 
BRANCH  23  26
ATOM     26  C   UNL     1      13.742  24.063   1.667  0.00  0.00    +0.035 C 
BRANCH  26  27
ATOM     27  C   UNL     1      13.476  22.643   1.152  0.00  0.00    +0.006 C 
BRANCH  27  28
ATOM     28  C   UNL     1      12.916  22.622  -0.276  0.00  0.00    +0.024 C 
BRANCH  28  29
ATOM     29  C   UNL     1      13.280  23.874  -1.078  0.00  0.00    +0.145 C 
BRANCH  29  30
ATOM     30  N   UNL     1      12.143  24.745  -1.355  0.00  0.00    -0.252 N 
ATOM     31  C   UNL     1      12.142  26.101  -1.469  0.00  0.00    +0.130 A 
ATOM     32  C   UNL     1      10.829  26.401  -1.735  0.00  0.00    +0.156 A 
ATOM     33  N   UNL     1      10.094  25.249  -1.774  0.00  0.00    -0.138 NA
ATOM     34  N   UNL     1      10.916  24.232  -1.538  0.00  0.00    -0.066 NA
ENDBRANCH  29  30
ENDBRANCH  28  29
ENDBRANCH  27  28
ENDBRANCH  26  27
ENDBRANCH  23  26
ENDBRANCH  19  20
ENDBRANCH  18  19
ENDBRANCH   3  18
TORSDOF 11
ENDMDL
MODEL 4
REMARK VINA RESULT:      -9.1      5.039      9.229
REMARK  Name = 6444692
REMARK  11 active torsions:
REMARK  status: ('A' for Active; 'I' for Inactive)
REMARK    1  A    between atoms: O_4  and  C_19
REMARK    2  A    between atoms: O_4  and  C_21
REMARK    3  A    between atoms: N_6  and  C_13
REMARK    4  A    between atoms: C_10  and  C_11
REMARK    5  A    between atoms: C_10  and  C_12
REMARK    6  A    between atoms: C_11  and  C_13
REMARK    7  A    between atoms: C_12  and  C_14
REMARK    8  A    between atoms: C_21  and  C_23
REMARK    9  A    between atoms: C_24  and  C_28
REMARK   10  A    between atoms: C_25  and  C_31
REMARK   11  A    between atoms: C_27  and  C_34
REMARK                            x       y       z     vdW  Elec       q    Type
REMARK                         _______ _______ _______ _____ _____    ______ ____
ROOT
ATOM      1  C   UNL     1      14.742  27.149   7.758  0.00  0.00    +0.220 A 
ATOM      2  N   UNL     1      14.862  26.276   6.784  0.00  0.00    -0.211 NA
ATOM      3  C   UNL     1      15.886  25.471   7.211  0.00  0.00    +0.117 A 
ATOM      4  C   UNL     1      16.341  25.898   8.434  0.00  0.00    +0.224 A 
ATOM      5  O   UNL     1      15.606  26.985   8.798  0.00  0.00    -0.444 OA
ENDROOT
BRANCH   1   7
ATOM      6  C   UNL     1      12.974  28.494   6.735  0.00  0.00    +0.013 C 
ATOM      7  C   UNL     1      13.795  28.201   7.770  0.00  0.00    +0.068 C 
BRANCH   6  11
ATOM      8  C   UNL     1      10.053  31.599   6.743  0.00  0.00    +0.055 A 
ATOM      9  C   UNL     1      10.010  30.599   7.713  0.00  0.00    +0.013 A 
ATOM     10  C   UNL     1      10.965  29.583   7.711  0.00  0.00    +0.008 A 
ATOM     11  C   UNL     1      11.965  29.568   6.738  0.00  0.00    -0.025 A 
ATOM     12  C   UNL     1      12.008  30.568   5.768  0.00  0.00    +0.008 A 
ATOM     13  C   UNL     1      11.052  31.585   5.770  0.00  0.00    +0.013 A 
BRANCH   8  15
ATOM     14  F   UNL     1       7.751  32.233   6.600  0.00  0.00    -0.166 F 
ATOM     15  C   UNL     1       9.030  32.686   6.747  0.00  0.00    +0.417 C 
ATOM     16  F   UNL     1       9.033  33.406   7.907  0.00  0.00    -0.166 F 
ATOM     17  F   UNL     1       9.202  33.601   5.747  0.00  0.00    -0.166 F 
ENDBRANCH   8  15
ENDBRANCH   6  11
ENDBRANCH   1   7
BRANCH   3  18
ATOM     18  C   UNL     1      16.360  24.323   6.386  0.00  0.00    +0.287 C 
BRANCH  18  19
ATOM     19  O   UNL     1      16.842  24.746   5.112  0.00  0.00    -0.486 OA
BRANCH  19  20
ATOM     20  C   UNL     1      16.024  24.549   4.043  0.00  0.00    +0.121 A 
ATOM     21  C   UNL     1      16.429  24.953   2.770  0.00  0.00    +0.046 A 
ATOM     22  C   UNL     1      15.590  24.751   1.675  0.00  0.00    +0.007 A 
ATOM     23  C   UNL     1      14.346  24.146   1.851  0.00  0.00    -0.047 A 
ATOM     24  C   UNL     1      13.941  23.742   3.123  0.00  0.00    +0.007 A 
ATOM     25  C   UNL     1      14.780  23.943   4.219  0.00  0.00    +0.046 A 
BRANCH  23  26
ATOM     26  C   UNL     1      13.438  23.928   0.666  0.00  0.00    +0.035 C 
BRANCH  26  27
ATOM     27  C   UNL     1      13.908  24.640  -0.609  0.00  0.00    +0.006 C 
BRANCH  27  28
ATOM     28  C   UNL     1      12.745  25.118  -1.487  0.00  0.00    +0.024 C 
BRANCH  28  29
ATOM     29  C   UNL     1      12.225  26.501  -1.087  0.00  0.00    +0.145 C 
BRANCH  29  30
ATOM     30  N   UNL     1      12.196  27.459  -2.186  0.00  0.00    -0.252 N 
ATOM     31  C   UNL     1      11.466  28.604  -2.273  0.00  0.00    +0.130 A 
ATOM     32  C   UNL     1      11.817  29.118  -3.497  0.00  0.00    +0.156 A 
ATOM     33  N   UNL     1      12.724  28.290  -4.099  0.00  0.00    -0.138 NA
ATOM     34  N   UNL     1      12.951  27.269  -3.280  0.00  0.00    -0.066 NA
ENDBRANCH  29  30
ENDBRANCH  28  29
ENDBRANCH  27  28
ENDBRANCH  26  27
ENDBRANCH  23  26
ENDBRANCH  19  20
ENDBRANCH  18  19
ENDBRANCH   3  18
TORSDOF 11
ENDMDL
MODEL 5
REMARK VINA RESULT:      -8.8      1.400      2.362
REMARK  Name = 6444692
REMARK  11 active torsions:
REMARK  status: ('A' for Active; 'I' for Inactive)
REMARK    1  A    between atoms: O_4  and  C_19
REMARK    2  A    between atoms: O_4  and  C_21
REMARK    3  A    between atoms: N_6  and  C_13
REMARK    4  A    between atoms: C_10  and  C_11
REMARK    5  A    between atoms: C_10  and  C_12
REMARK    6  A    between atoms: C_11  and  C_13
REMARK    7  A    between atoms: C_12  and  C_14
REMARK    8  A    between atoms: C_21  and  C_23
REMARK    9  A    between atoms: C_24  and  C_28
REMARK   10  A    between atoms: C_25  and  C_31
REMARK   11  A    between atoms: C_27  and  C_34
REMARK                            x       y       z     vdW  Elec       q    Type
REMARK                         _______ _______ _______ _____ _____    ______ ____
ROOT
ATOM      1  C   UNL     1      15.780  26.382   9.009  0.00  0.00    +0.220 A 
ATOM      2  N   UNL     1      15.572  27.536   9.601  0.00  0.00    -0.211 NA
ATOM      3  C   UNL     1      16.159  27.365  10.830  0.00  0.00    +0.117 A 
ATOM      4  C   UNL     1      16.697  26.106  10.922  0.00  0.00    +0.224 A 
ATOM      5  O   UNL     1      16.458  25.461   9.747  0.00  0.00    -0.444 OA
ENDROOT
BRANCH   1   7
ATOM      6  C   UNL     1      16.182  25.725   6.687  0.00  0.00    +0.013 C 
ATOM      7  C   UNL     1      15.349  26.075   7.696  0.00  0.00    +0.068 C 
BRANCH   6  11
ATOM      8  C   UNL     1      14.934  24.721   2.736  0.00  0.00    +0.055 A 
ATOM      9  C   UNL     1      16.290  24.719   3.060  0.00  0.00    +0.013 A 
ATOM     10  C   UNL     1      16.698  25.046   4.353  0.00  0.00    +0.008 A 
ATOM     11  C   UNL     1      15.750  25.377   5.322  0.00  0.00    -0.025 A 
ATOM     12  C   UNL     1      14.394  25.379   4.997  0.00  0.00    +0.008 A 
ATOM     13  C   UNL     1      13.985  25.051   3.704  0.00  0.00    +0.013 A 
BRANCH   8  15
ATOM     14  F   UNL     1      13.944  23.125   1.255  0.00  0.00    -0.166 F 
ATOM     15  C   UNL     1      14.498  24.369   1.353  0.00  0.00    +0.417 C 
ATOM     16  F   UNL     1      13.557  25.228   0.864  0.00  0.00    -0.166 F 
ATOM     17  F   UNL     1      15.514  24.380   0.440  0.00  0.00    -0.166 F 
ENDBRANCH   8  15
ENDBRANCH   6  11
ENDBRANCH   1   7
BRANCH   3  18
ATOM     18  C   UNL     1      16.153  28.457  11.845  0.00  0.00    +0.287 C 
BRANCH  18  19
ATOM     19  O   UNL     1      15.332  28.137  12.966  0.00  0.00    -0.486 OA
BRANCH  19  20
ATOM     20  C   UNL     1      14.347  29.021  13.287  0.00  0.00    +0.121 A 
ATOM     21  C   UNL     1      13.156  28.564  13.853  0.00  0.00    +0.046 A 
ATOM     22  C   UNL     1      12.148  29.470  14.180  0.00  0.00    +0.007 A 
ATOM     23  C   UNL     1      12.329  30.832  13.942  0.00  0.00    -0.047 A 
ATOM     24  C   UNL     1      13.520  31.289  13.376  0.00  0.00    +0.007 A 
ATOM     25  C   UNL     1      14.529  30.383  13.049  0.00  0.00    +0.046 A 
BRANCH  23  26
ATOM     26  C   UNL     1      11.239  31.812  14.296  0.00  0.00    +0.035 C 
BRANCH  26  27
ATOM     27  C   UNL     1      10.787  32.683  13.118  0.00  0.00    +0.006 C 
BRANCH  27  28
ATOM     28  C   UNL     1      10.196  31.865  11.963  0.00  0.00    +0.024 C 
BRANCH  28  29
ATOM     29  C   UNL     1      10.323  32.566  10.608  0.00  0.00    +0.145 C 
BRANCH  29  30
ATOM     30  N   UNL     1      10.654  31.665   9.510  0.00  0.00    -0.252 N 
ATOM     31  C   UNL     1      10.317  31.794   8.198  0.00  0.00    +0.130 A 
ATOM     32  C   UNL     1      10.880  30.689   7.610  0.00  0.00    +0.156 A 
ATOM     33  N   UNL     1      11.524  29.943   8.558  0.00  0.00    -0.138 NA
ATOM     34  N   UNL     1      11.379  30.556   9.728  0.00  0.00    -0.066 NA
ENDBRANCH  29  30
ENDBRANCH  28  29
ENDBRANCH  27  28
ENDBRANCH  26  27
ENDBRANCH  23  26
ENDBRANCH  19  20
ENDBRANCH  18  19
ENDBRANCH   3  18
TORSDOF 11
ENDMDL
MODEL 6
REMARK VINA RESULT:      -8.8      5.378      8.037
REMARK  Name = 6444692
REMARK  11 active torsions:
REMARK  status: ('A' for Active; 'I' for Inactive)
REMARK    1  A    between atoms: O_4  and  C_19
REMARK    2  A    between atoms: O_4  and  C_21
REMARK    3  A    between atoms: N_6  and  C_13
REMARK    4  A    between atoms: C_10  and  C_11
REMARK    5  A    between atoms: C_10  and  C_12
REMARK    6  A    between atoms: C_11  and  C_13
REMARK    7  A    between atoms: C_12  and  C_14
REMARK    8  A    between atoms: C_21  and  C_23
REMARK    9  A    between atoms: C_24  and  C_28
REMARK   10  A    between atoms: C_25  and  C_31
REMARK   11  A    between atoms: C_27  and  C_34
REMARK                            x       y       z     vdW  Elec       q    Type
REMARK                         _______ _______ _______ _____ _____    ______ ____
ROOT
ATOM      1  C   UNL     1      11.190  30.580   6.595  0.00  0.00    +0.220 A 
ATOM      2  N   UNL     1      10.349  31.118   5.740  0.00  0.00    -0.211 NA
ATOM      3  C   UNL     1       9.651  32.012   6.511  0.00  0.00    +0.117 A 
ATOM      4  C   UNL     1      10.106  31.972   7.806  0.00  0.00    +0.224 A 
ATOM      5  O   UNL     1      11.103  31.047   7.871  0.00  0.00    -0.444 OA
ENDROOT
BRANCH   1   7
ATOM      6  C   UNL     1      12.322  28.443   6.964  0.00  0.00    +0.013 C 
ATOM      7  C   UNL     1      12.136  29.583   6.257  0.00  0.00    +0.068 C 
BRANCH   6  11
ATOM      8  C   UNL     1      15.103  25.374   5.951  0.00  0.00    +0.055 A 
ATOM      9  C   UNL     1      14.149  25.786   5.021  0.00  0.00    +0.013 A 
ATOM     10  C   UNL     1      13.240  26.790   5.351  0.00  0.00    +0.008 A 
ATOM     11  C   UNL     1      13.283  27.383   6.614  0.00  0.00    -0.025 A 
ATOM     12  C   UNL     1      14.237  26.971   7.544  0.00  0.00    +0.008 A 
ATOM     13  C   UNL     1      15.147  25.966   7.214  0.00  0.00    +0.013 A 
BRANCH   8  15
ATOM     14  F   UNL     1      15.563  23.040   5.707  0.00  0.00    -0.166 F 
ATOM     15  C   UNL     1      16.076  24.301   5.596  0.00  0.00    +0.417 C 
ATOM     16  F   UNL     1      16.524  24.402   4.311  0.00  0.00    -0.166 F 
ATOM     17  F   UNL     1      17.197  24.299   6.376  0.00  0.00    -0.166 F 
ENDBRANCH   8  15
ENDBRANCH   6  11
ENDBRANCH   1   7
BRANCH   3  18
ATOM     18  C   UNL     1       8.570  32.856   5.925  0.00  0.00    +0.287 C 
BRANCH  18  19
ATOM     19  O   UNL     1       8.053  32.297   4.720  0.00  0.00    -0.486 OA
BRANCH  19  20
ATOM     20  C   UNL     1       6.723  32.463   4.480  0.00  0.00    +0.121 A 
ATOM     21  C   UNL     1       5.838  32.635   5.544  0.00  0.00    +0.046 A 
ATOM     22  C   UNL     1       4.476  32.804   5.299  0.00  0.00    +0.007 A 
ATOM     23  C   UNL     1       3.998  32.801   3.988  0.00  0.00    -0.047 A 
ATOM     24  C   UNL     1       4.883  32.629   2.923  0.00  0.00    +0.007 A 
ATOM     25  C   UNL     1       6.245  32.460   3.169  0.00  0.00    +0.046 A 
BRANCH  23  26
ATOM     26  C   UNL     1       2.525  32.984   3.722  0.00  0.00    +0.035 C 
BRANCH  26  27
ATOM     27  C   UNL     1       1.946  34.270   4.323  0.00  0.00    +0.006 C 
BRANCH  27  28
ATOM     28  C   UNL     1       2.526  35.540   3.687  0.00  0.00    +0.024 C 
BRANCH  28  29
ATOM     29  C   UNL     1       3.221  36.451   4.702  0.00  0.00    +0.145 C 
BRANCH  29  30
ATOM     30  N   UNL     1       4.675  36.345   4.688  0.00  0.00    -0.252 N 
ATOM     31  C   UNL     1       5.519  36.331   5.756  0.00  0.00    +0.130 A 
ATOM     32  C   UNL     1       6.761  36.209   5.183  0.00  0.00    +0.156 A 
ATOM     33  N   UNL     1       6.636  36.155   3.823  0.00  0.00    -0.138 NA
ATOM     34  N   UNL     1       5.343  36.239   3.528  0.00  0.00    -0.066 NA
ENDBRANCH  29  30
ENDBRANCH  28  29
ENDBRANCH  27  28
ENDBRANCH  26  27
ENDBRANCH  23  26
ENDBRANCH  19  20
ENDBRANCH  18  19
ENDBRANCH   3  18
TORSDOF 11
ENDMDL
MODEL 7
REMARK VINA RESULT:      -8.6      5.635      7.569
REMARK  Name = 6444692
REMARK  11 active torsions:
REMARK  status: ('A' for Active; 'I' for Inactive)
REMARK    1  A    between atoms: O_4  and  C_19
REMARK    2  A    between atoms: O_4  and  C_21
REMARK    3  A    between atoms: N_6  and  C_13
REMARK    4  A    between atoms: C_10  and  C_11
REMARK    5  A    between atoms: C_10  and  C_12
REMARK    6  A    between atoms: C_11  and  C_13
REMARK    7  A    between atoms: C_12  and  C_14
REMARK    8  A    between atoms: C_21  and  C_23
REMARK    9  A    between atoms: C_24  and  C_28
REMARK   10  A    between atoms: C_25  and  C_31
REMARK   11  A    between atoms: C_27  and  C_34
REMARK                            x       y       z     vdW  Elec       q    Type
REMARK                         _______ _______ _______ _____ _____    ______ ____
ROOT
ATOM      1  C   UNL     1      11.043  29.630   7.797  0.00  0.00    +0.220 A 
ATOM      2  N   UNL     1      11.223  30.335   8.891  0.00  0.00    -0.211 NA
ATOM      3  C   UNL     1      10.155  31.195   8.887  0.00  0.00    +0.117 A 
ATOM      4  C   UNL     1       9.374  30.968   7.781  0.00  0.00    +0.224 A 
ATOM      5  O   UNL     1       9.941  29.956   7.068  0.00  0.00    -0.444 OA
ENDROOT
BRANCH   1   7
ATOM      6  C   UNL     1      13.255  28.717   7.288  0.00  0.00    +0.013 C 
ATOM      7  C   UNL     1      11.909  28.595   7.368  0.00  0.00    +0.068 C 
BRANCH   6  11
ATOM      8  C   UNL     1      15.914  25.613   6.074  0.00  0.00    +0.055 A 
ATOM      9  C   UNL     1      15.878  26.019   7.408  0.00  0.00    +0.013 A 
ATOM     10  C   UNL     1      15.008  27.033   7.805  0.00  0.00    +0.008 A 
ATOM     11  C   UNL     1      14.173  27.643   6.868  0.00  0.00    -0.025 A 
ATOM     12  C   UNL     1      14.209  27.237   5.534  0.00  0.00    +0.008 A 
ATOM     13  C   UNL     1      15.079  26.222   5.136  0.00  0.00    +0.013 A 
BRANCH   8  15
ATOM     14  F   UNL     1      18.005  24.490   6.369  0.00  0.00    -0.166 F 
ATOM     15  C   UNL     1      16.845  24.527   5.650  0.00  0.00    +0.417 C 
ATOM     16  F   UNL     1      16.294  23.284   5.778  0.00  0.00    -0.166 F 
ATOM     17  F   UNL     1      17.237  24.621   4.345  0.00  0.00    -0.166 F 
ENDBRANCH   8  15
ENDBRANCH   6  11
ENDBRANCH   1   7
BRANCH   3  18
ATOM     18  C   UNL     1       9.966  32.196   9.976  0.00  0.00    +0.287 C 
BRANCH  18  19
ATOM     19  O   UNL     1       8.624  32.673  10.034  0.00  0.00    -0.486 OA
BRANCH  19  20
ATOM     20  C   UNL     1       8.441  34.020   9.962  0.00  0.00    +0.121 A 
ATOM     21  C   UNL     1       9.039  34.857  10.904  0.00  0.00    +0.046 A 
ATOM     22  C   UNL     1       8.852  36.237  10.830  0.00  0.00    +0.007 A 
ATOM     23  C   UNL     1       8.064  36.780   9.815  0.00  0.00    -0.047 A 
ATOM     24  C   UNL     1       7.466  35.943   8.873  0.00  0.00    +0.007 A 
ATOM     25  C   UNL     1       7.654  34.564   8.946  0.00  0.00    +0.046 A 
BRANCH  23  26
ATOM     26  C   UNL     1       7.861  38.272   9.735  0.00  0.00    +0.035 C 
BRANCH  26  27
ATOM     27  C   UNL     1       9.132  39.083  10.018  0.00  0.00    +0.006 C 
BRANCH  27  28
ATOM     28  C   UNL     1       9.367  40.200   8.994  0.00  0.00    +0.024 C 
BRANCH  28  29
ATOM     29  C   UNL     1       9.843  41.506   9.635  0.00  0.00    +0.145 C 
BRANCH  29  30
ATOM     30  N   UNL     1      11.232  41.472  10.078  0.00  0.00    -0.252 N 
ATOM     31  C   UNL     1      11.765  42.044  11.192  0.00  0.00    +0.130 A 
ATOM     32  C   UNL     1      13.093  41.701  11.127  0.00  0.00    +0.156 A 
ATOM     33  N   UNL     1      13.318  40.952  10.006  0.00  0.00    -0.138 NA
ATOM     34  N   UNL     1      12.162  40.816   9.366  0.00  0.00    -0.066 NA
ENDBRANCH  29  30
ENDBRANCH  28  29
ENDBRANCH  27  28
ENDBRANCH  26  27
ENDBRANCH  23  26
ENDBRANCH  19  20
ENDBRANCH  18  19
ENDBRANCH   3  18
TORSDOF 11
ENDMDL
MODEL 8
REMARK VINA RESULT:      -8.6      3.839      6.423
REMARK  Name = 6444692
REMARK  11 active torsions:
REMARK  status: ('A' for Active; 'I' for Inactive)
REMARK    1  A    between atoms: O_4  and  C_19
REMARK    2  A    between atoms: O_4  and  C_21
REMARK    3  A    between atoms: N_6  and  C_13
REMARK    4  A    between atoms: C_10  and  C_11
REMARK    5  A    between atoms: C_10  and  C_12
REMARK    6  A    between atoms: C_11  and  C_13
REMARK    7  A    between atoms: C_12  and  C_14
REMARK    8  A    between atoms: C_21  and  C_23
REMARK    9  A    between atoms: C_24  and  C_28
REMARK   10  A    between atoms: C_25  and  C_31
REMARK   11  A    between atoms: C_27  and  C_34
REMARK                            x       y       z     vdW  Elec       q    Type
REMARK                         _______ _______ _______ _____ _____    ______ ____
ROOT
ATOM      1  C   UNL     1      15.980  25.700   7.939  0.00  0.00    +0.220 A 
ATOM      2  N   UNL     1      15.375  26.338   8.915  0.00  0.00    -0.211 NA
ATOM      3  C   UNL     1      16.303  26.311   9.926  0.00  0.00    +0.117 A 
ATOM      4  C   UNL     1      17.433  25.653   9.508  0.00  0.00    +0.224 A 
ATOM      5  O   UNL     1      17.235  25.253   8.222  0.00  0.00    -0.444 OA
ENDROOT
BRANCH   1   7
ATOM      6  C   UNL     1      15.952  24.669   5.721  0.00  0.00    +0.013 C 
ATOM      7  C   UNL     1      15.407  25.471   6.665  0.00  0.00    +0.068 C 
BRANCH   6  11
ATOM      8  C   UNL     1      14.231  23.890   1.898  0.00  0.00    +0.055 A 
ATOM      9  C   UNL     1      15.346  24.722   2.005  0.00  0.00    +0.013 A 
ATOM     10  C   UNL     1      15.909  24.976   3.255  0.00  0.00    +0.008 A 
ATOM     11  C   UNL     1      15.358  24.399   4.399  0.00  0.00    -0.025 A 
ATOM     12  C   UNL     1      14.243  23.567   4.292  0.00  0.00    +0.008 A 
ATOM     13  C   UNL     1      13.680  23.313   3.042  0.00  0.00    +0.013 A 
BRANCH   8  15
ATOM     14  F   UNL     1      14.554  23.481  -0.436  0.00  0.00    -0.166 F 
ATOM     15  C   UNL     1      13.630  23.618   0.560  0.00  0.00    +0.417 C 
ATOM     16  F   UNL     1      12.895  22.468   0.539  0.00  0.00    -0.166 F 
ATOM     17  F   UNL     1      12.785  24.602   0.130  0.00  0.00    -0.166 F 
ENDBRANCH   8  15
ENDBRANCH   6  11
ENDBRANCH   1   7
BRANCH   3  18
ATOM     18  C   UNL     1      16.019  26.937  11.249  0.00  0.00    +0.287 C 
BRANCH  18  19
ATOM     19  O   UNL     1      15.713  28.324  11.127  0.00  0.00    -0.486 OA
BRANCH  19  20
ATOM     20  C   UNL     1      15.190  28.943  12.222  0.00  0.00    +0.121 A 
ATOM     21  C   UNL     1      14.868  30.299  12.169  0.00  0.00    +0.046 A 
ATOM     22  C   UNL     1      14.333  30.932  13.290  0.00  0.00    +0.007 A 
ATOM     23  C   UNL     1      14.121  30.210  14.465  0.00  0.00    -0.047 A 
ATOM     24  C   UNL     1      14.443  28.853  14.517  0.00  0.00    +0.007 A 
ATOM     25  C   UNL     1      14.977  28.220  13.396  0.00  0.00    +0.046 A 
BRANCH  23  26
ATOM     26  C   UNL     1      13.542  30.894  15.678  0.00  0.00    +0.035 C 
BRANCH  26  27
ATOM     27  C   UNL     1      14.603  31.413  16.656  0.00  0.00    +0.006 C 
BRANCH  27  28
ATOM     28  C   UNL     1      14.450  30.829  18.066  0.00  0.00    +0.024 C 
BRANCH  28  29
ATOM     29  C   UNL     1      13.609  29.551  18.094  0.00  0.00    +0.145 C 
BRANCH  29  30
ATOM     30  N   UNL     1      14.319  28.392  18.622  0.00  0.00    -0.252 N 
ATOM     31  C   UNL     1      14.690  28.159  19.911  0.00  0.00    +0.130 A 
ATOM     32  C   UNL     1      15.313  26.937  19.852  0.00  0.00    +0.156 A 
ATOM     33  N   UNL     1      15.300  26.478  18.564  0.00  0.00    -0.138 NA
ATOM     34  N   UNL     1      14.683  27.384  17.813  0.00  0.00    -0.066 NA
ENDBRANCH  29  30
ENDBRANCH  28  29
ENDBRANCH  27  28
ENDBRANCH  26  27
ENDBRANCH  23  26
ENDBRANCH  19  20
ENDBRANCH  18  19
ENDBRANCH   3  18
TORSDOF 11
ENDMDL
MODEL 9
REMARK VINA RESULT:      -8.5      4.298      6.406
REMARK  Name = 6444692
REMARK  11 active torsions:
REMARK  status: ('A' for Active; 'I' for Inactive)
REMARK    1  A    between atoms: O_4  and  C_19
REMARK    2  A    between atoms: O_4  and  C_21
REMARK    3  A    between atoms: N_6  and  C_13
REMARK    4  A    between atoms: C_10  and  C_11
REMARK    5  A    between atoms: C_10  and  C_12
REMARK    6  A    between atoms: C_11  and  C_13
REMARK    7  A    between atoms: C_12  and  C_14
REMARK    8  A    between atoms: C_21  and  C_23
REMARK    9  A    between atoms: C_24  and  C_28
REMARK   10  A    between atoms: C_25  and  C_31
REMARK   11  A    between atoms: C_27  and  C_34
REMARK                            x       y       z     vdW  Elec       q    Type
REMARK                         _______ _______ _______ _____ _____    ______ ____
ROOT
ATOM      1  C   UNL     1      16.310  25.709   7.635  0.00  0.00    +0.220 A 
ATOM      2  N   UNL     1      15.695  26.390   8.575  0.00  0.00    -0.211 NA
ATOM      3  C   UNL     1      16.527  26.249   9.657  0.00  0.00    +0.117 A 
ATOM      4  C   UNL     1      17.614  25.483   9.316  0.00  0.00    +0.224 A 
ATOM      5  O   UNL     1      17.483  25.128   8.008  0.00  0.00    -0.444 OA
ENDROOT
BRANCH   1   7
ATOM      6  C   UNL     1      15.634  24.370   5.703  0.00  0.00    +0.013 C 
ATOM      7  C   UNL     1      15.824  25.563   6.313  0.00  0.00    +0.068 C 
BRANCH   6  11
ATOM      8  C   UNL     1      14.107  23.869   1.753  0.00  0.00    +0.055 A 
ATOM      9  C   UNL     1      13.499  23.214   2.825  0.00  0.00    +0.013 A 
ATOM     10  C   UNL     1      13.998  23.379   4.116  0.00  0.00    +0.008 A 
ATOM     11  C   UNL     1      15.106  24.197   4.338  0.00  0.00    -0.025 A 
ATOM     12  C   UNL     1      15.714  24.852   3.266  0.00  0.00    +0.008 A 
ATOM     13  C   UNL     1      15.215  24.688   1.974  0.00  0.00    +0.013 A 
BRANCH   8  15
ATOM     14  F   UNL     1      12.678  24.659   0.006  0.00  0.00    -0.166 F 
ATOM     15  C   UNL     1      13.572  23.694   0.372  0.00  0.00    +0.417 C 
ATOM     16  F   UNL     1      14.551  23.721  -0.578  0.00  0.00    -0.166 F 
ATOM     17  F   UNL     1      12.914  22.510   0.187  0.00  0.00    -0.166 F 
ENDBRANCH   8  15
ENDBRANCH   6  11
ENDBRANCH   1   7
BRANCH   3  18
ATOM     18  C   UNL     1      16.200  26.879  10.968  0.00  0.00    +0.287 C 
BRANCH  18  19
ATOM     19  O   UNL     1      15.647  28.184  10.808  0.00  0.00    -0.486 OA
BRANCH  19  20
ATOM     20  C   UNL     1      15.184  28.803  11.929  0.00  0.00    +0.121 A 
ATOM     21  C   UNL     1      14.855  30.158  11.893  0.00  0.00    +0.046 A 
ATOM     22  C   UNL     1      14.381  30.792  13.041  0.00  0.00    +0.007 A 
ATOM     23  C   UNL     1      14.236  30.071  14.226  0.00  0.00    -0.047 A 
ATOM     24  C   UNL     1      14.565  28.716  14.263  0.00  0.00    +0.007 A 
ATOM     25  C   UNL     1      15.038  28.082  13.114  0.00  0.00    +0.046 A 
BRANCH  23  26
ATOM     26  C   UNL     1      13.724  30.756  15.468  0.00  0.00    +0.035 C 
BRANCH  26  27
ATOM     27  C   UNL     1      14.832  31.166  16.446  0.00  0.00    +0.006 C 
BRANCH  27  28
ATOM     28  C   UNL     1      14.845  30.316  17.722  0.00  0.00    +0.024 C 
BRANCH  28  29
ATOM     29  C   UNL     1      14.856  31.158  19.001  0.00  0.00    +0.145 C 
BRANCH  29  30
ATOM     30  N   UNL     1      13.839  32.203  19.024  0.00  0.00    -0.252 N 
ATOM     31  C   UNL     1      12.531  32.083  19.382  0.00  0.00    +0.130 A 
ATOM     32  C   UNL     1      12.037  33.355  19.228  0.00  0.00    +0.156 A 
ATOM     33  N   UNL     1      13.033  34.184  18.794  0.00  0.00    -0.138 NA
ATOM     34  N   UNL     1      14.142  33.463  18.672  0.00  0.00    -0.066 NA
ENDBRANCH  29  30
ENDBRANCH  28  29
ENDBRANCH  27  28
ENDBRANCH  26  27
ENDBRANCH  23  26
ENDBRANCH  19  20
ENDBRANCH  18  19
ENDBRANCH   3  18
TORSDOF 11
ENDMDL
MODEL 10
REMARK VINA RESULT:      -8.3      3.153      4.645
REMARK  Name = 6444692
REMARK  11 active torsions:
REMARK  status: ('A' for Active; 'I' for Inactive)
REMARK    1  A    between atoms: O_4  and  C_19
REMARK    2  A    between atoms: O_4  and  C_21
REMARK    3  A    between atoms: N_6  and  C_13
REMARK    4  A    between atoms: C_10  and  C_11
REMARK    5  A    between atoms: C_10  and  C_12
REMARK    6  A    between atoms: C_11  and  C_13
REMARK    7  A    between atoms: C_12  and  C_14
REMARK    8  A    between atoms: C_21  and  C_23
REMARK    9  A    between atoms: C_24  and  C_28
REMARK   10  A    between atoms: C_25  and  C_31
REMARK   11  A    between atoms: C_27  and  C_34
REMARK                            x       y       z     vdW  Elec       q    Type
REMARK                         _______ _______ _______ _____ _____    ______ ____
ROOT
ATOM      1  C   UNL     1      15.043  25.336   5.875  0.00  0.00    +0.220 A 
ATOM      2  N   UNL     1      14.594  26.554   6.076  0.00  0.00    -0.211 NA
ATOM      3  C   UNL     1      15.211  26.924   7.245  0.00  0.00    +0.117 A 
ATOM      4  C   UNL     1      16.011  25.904   7.697  0.00  0.00    +0.224 A 
ATOM      5  O   UNL     1      15.910  24.870   6.816  0.00  0.00    -0.444 OA
ENDROOT
BRANCH   1   7
ATOM      6  C   UNL     1      14.362  25.016   3.547  0.00  0.00    +0.013 C 
ATOM      7  C   UNL     1      14.681  24.529   4.769  0.00  0.00    +0.068 C 
BRANCH   6  11
ATOM      8  C   UNL     1      13.335  22.632   0.165  0.00  0.00    +0.055 A 
ATOM      9  C   UNL     1      13.816  23.928  -0.016  0.00  0.00    +0.013 A 
ATOM     10  C   UNL     1      14.152  24.708   1.090  0.00  0.00    +0.008 A 
ATOM     11  C   UNL     1      14.008  24.192   2.378  0.00  0.00    -0.025 A 
ATOM     12  C   UNL     1      13.527  22.895   2.559  0.00  0.00    +0.008 A 
ATOM     13  C   UNL     1      13.190  22.115   1.453  0.00  0.00    +0.013 A 
BRANCH   8  15
ATOM     14  F   UNL     1      14.051  21.205  -1.615  0.00  0.00    -0.166 F 
ATOM     15  C   UNL     1      12.976  21.798  -1.019  0.00  0.00    +0.417 C 
ATOM     16  F   UNL     1      12.123  20.780  -0.705  0.00  0.00    -0.166 F 
ATOM     17  F   UNL     1      12.359  22.500  -2.015  0.00  0.00    -0.166 F 
ENDBRANCH   8  15
ENDBRANCH   6  11
ENDBRANCH   1   7
BRANCH   3  18
ATOM     18  C   UNL     1      14.974  28.266   7.850  0.00  0.00    +0.287 C 
BRANCH  18  19
ATOM     19  O   UNL     1      14.436  29.189   6.905  0.00  0.00    -0.486 OA
BRANCH  19  20
ATOM     20  C   UNL     1      13.154  29.602   7.102  0.00  0.00    +0.121 A 
ATOM     21  C   UNL     1      12.420  30.129   6.040  0.00  0.00    +0.046 A 
ATOM     22  C   UNL     1      11.107  30.553   6.242  0.00  0.00    +0.007 A 
ATOM     23  C   UNL     1      10.528  30.450   7.507  0.00  0.00    -0.047 A 
ATOM     24  C   UNL     1      11.262  29.923   8.569  0.00  0.00    +0.007 A 
ATOM     25  C   UNL     1      12.575  29.498   8.367  0.00  0.00    +0.046 A 
BRANCH  23  26
ATOM     26  C   UNL     1       9.108  30.908   7.726  0.00  0.00    +0.035 C 
BRANCH  26  27
ATOM     27  C   UNL     1       8.595  31.865   6.643  0.00  0.00    +0.006 C 
BRANCH  27  28
ATOM     28  C   UNL     1       8.710  33.340   7.047  0.00  0.00    +0.024 C 
BRANCH  28  29
ATOM     29  C   UNL     1       7.354  33.982   7.351  0.00  0.00    +0.145 C 
BRANCH  29  30
ATOM     30  N   UNL     1       7.002  35.069   6.445  0.00  0.00    -0.252 N 
ATOM     31  C   UNL     1       5.885  35.847   6.473  0.00  0.00    +0.130 A 
ATOM     32  C   UNL     1       6.063  36.703   5.414  0.00  0.00    +0.156 A 
ATOM     33  N   UNL     1       7.249  36.425   4.793  0.00  0.00    -0.138 NA
ATOM     34  N   UNL     1       7.821  35.415   5.439  0.00  0.00    -0.066 NA
ENDBRANCH  29  30
ENDBRANCH  28  29
ENDBRANCH  27  28
ENDBRANCH  26  27
ENDBRANCH  23  26
ENDBRANCH  19  20
ENDBRANCH  18  19
ENDBRANCH   3  18
TORSDOF 11
ENDMDL
MODEL 11
REMARK VINA RESULT:      -8.3      3.245      6.240
REMARK  Name = 6444692
REMARK  11 active torsions:
REMARK  status: ('A' for Active; 'I' for Inactive)
REMARK    1  A    between atoms: O_4  and  C_19
REMARK    2  A    between atoms: O_4  and  C_21
REMARK    3  A    between atoms: N_6  and  C_13
REMARK    4  A    between atoms: C_10  and  C_11
REMARK    5  A    between atoms: C_10  and  C_12
REMARK    6  A    between atoms: C_11  and  C_13
REMARK    7  A    between atoms: C_12  and  C_14
REMARK    8  A    between atoms: C_21  and  C_23
REMARK    9  A    between atoms: C_24  and  C_28
REMARK   10  A    between atoms: C_25  and  C_31
REMARK   11  A    between atoms: C_27  and  C_34
REMARK                            x       y       z     vdW  Elec       q    Type
REMARK                         _______ _______ _______ _____ _____    ______ ____
ROOT
ATOM      1  C   UNL     1      11.079  29.724   7.779  0.00  0.00    +0.220 A 
ATOM      2  N   UNL     1      11.343  30.466   8.830  0.00  0.00    -0.211 NA
ATOM      3  C   UNL     1      10.263  31.310   8.894  0.00  0.00    +0.117 A 
ATOM      4  C   UNL     1       9.391  31.036   7.870  0.00  0.00    +0.224 A 
ATOM      5  O   UNL     1       9.910  30.009   7.141  0.00  0.00    -0.444 OA
ENDROOT
BRANCH   1   7
ATOM      6  C   UNL     1      13.273  28.743   7.323  0.00  0.00    +0.013 C 
ATOM      7  C   UNL     1      11.921  28.688   7.307  0.00  0.00    +0.068 C 
BRANCH   6  11
ATOM      8  C   UNL     1      15.857  25.627   5.984  0.00  0.00    +0.055 A 
ATOM      9  C   UNL     1      15.774  25.929   7.343  0.00  0.00    +0.013 A 
ATOM     10  C   UNL     1      14.929  26.947   7.781  0.00  0.00    +0.008 A 
ATOM     11  C   UNL     1      14.166  27.666   6.860  0.00  0.00    -0.025 A 
ATOM     12  C   UNL     1      14.249  27.364   5.501  0.00  0.00    +0.008 A 
ATOM     13  C   UNL     1      15.094  26.345   5.062  0.00  0.00    +0.013 A 
BRANCH   8  15
ATOM     14  F   UNL     1      17.975  24.528   6.141  0.00  0.00    -0.166 F 
ATOM     15  C   UNL     1      16.761  24.536   5.517  0.00  0.00    +0.417 C 
ATOM     16  F   UNL     1      16.235  23.294   5.722  0.00  0.00    -0.166 F 
ATOM     17  F   UNL     1      17.047  24.598   4.182  0.00  0.00    -0.166 F 
ENDBRANCH   8  15
ENDBRANCH   6  11
ENDBRANCH   1   7
BRANCH   3  18
ATOM     18  C   UNL     1      10.155  32.343   9.964  0.00  0.00    +0.287 C 
BRANCH  18  19
ATOM     19  O   UNL     1       9.385  31.882  11.072  0.00  0.00    -0.486 OA
BRANCH  19  20
ATOM     20  C   UNL     1      10.033  31.739  12.261  0.00  0.00    +0.121 A 
ATOM     21  C   UNL     1       9.304  31.656  13.448  0.00  0.00    +0.046 A 
ATOM     22  C   UNL     1       9.968  31.509  14.665  0.00  0.00    +0.007 A 
ATOM     23  C   UNL     1      11.361  31.446  14.696  0.00  0.00    -0.047 A 
ATOM     24  C   UNL     1      12.090  31.528  13.509  0.00  0.00    +0.007 A 
ATOM     25  C   UNL     1      11.426  31.674  12.292  0.00  0.00    +0.046 A 
BRANCH  23  26
ATOM     26  C   UNL     1      12.080  31.287  16.012  0.00  0.00    +0.035 C 
BRANCH  26  27
ATOM     27  C   UNL     1      13.600  31.464  15.909  0.00  0.00    +0.006 C 
BRANCH  27  28
ATOM     28  C   UNL     1      14.373  30.178  16.223  0.00  0.00    +0.024 C 
BRANCH  28  29
ATOM     29  C   UNL     1      13.756  28.937  15.573  0.00  0.00    +0.145 C 
BRANCH  29  30
ATOM     30  N   UNL     1      14.464  28.486  14.380  0.00  0.00    -0.252 N 
ATOM     31  C   UNL     1      14.966  29.250  13.372  0.00  0.00    +0.130 A 
ATOM     32  C   UNL     1      15.528  28.331  12.520  0.00  0.00    +0.156 A 
ATOM     33  N   UNL     1      15.354  27.072  13.024  0.00  0.00    -0.138 NA
ATOM     34  N   UNL     1      14.696  27.180  14.174  0.00  0.00    -0.066 NA
ENDBRANCH  29  30
ENDBRANCH  28  29
ENDBRANCH  27  28
ENDBRANCH  26  27
ENDBRANCH  23  26
ENDBRANCH  19  20
ENDBRANCH  18  19
ENDBRANCH   3  18
TORSDOF 11
ENDMDL
MODEL 12
REMARK VINA RESULT:      -8.2      4.496      7.438
REMARK  Name = 6444692
REMARK  11 active torsions:
REMARK  status: ('A' for Active; 'I' for Inactive)
REMARK    1  A    between atoms: O_4  and  C_19
REMARK    2  A    between atoms: O_4  and  C_21
REMARK    3  A    between atoms: N_6  and  C_13
REMARK    4  A    between atoms: C_10  and  C_11
REMARK    5  A    between atoms: C_10  and  C_12
REMARK    6  A    between atoms: C_11  and  C_13
REMARK    7  A    between atoms: C_12  and  C_14
REMARK    8  A    between atoms: C_21  and  C_23
REMARK    9  A    between atoms: C_24  and  C_28
REMARK   10  A    between atoms: C_25  and  C_31
REMARK   11  A    between atoms: C_27  and  C_34
REMARK                            x       y       z     vdW  Elec       q    Type
REMARK                         _______ _______ _______ _____ _____    ______ ____
ROOT
ATOM      1  C   UNL     1      11.313  30.389   7.038  0.00  0.00    +0.220 A 
ATOM      2  N   UNL     1      11.431  30.756   8.294  0.00  0.00    -0.211 NA
ATOM      3  C   UNL     1      10.368  31.605   8.472  0.00  0.00    +0.117 A 
ATOM      4  C   UNL     1       9.653  31.711   7.305  0.00  0.00    +0.224 A 
ATOM      5  O   UNL     1      10.256  30.927   6.370  0.00  0.00    -0.444 OA
ENDROOT
BRANCH   1   7
ATOM      6  C   UNL     1      12.954  28.575   7.025  0.00  0.00    +0.013 C 
ATOM      7  C   UNL     1      12.198  29.498   6.385  0.00  0.00    +0.068 C 
BRANCH   6  11
ATOM      8  C   UNL     1      15.577  25.817   5.103  0.00  0.00    +0.055 A 
ATOM      9  C   UNL     1      14.315  26.070   4.566  0.00  0.00    +0.013 A 
ATOM     10  C   UNL     1      13.457  26.972   5.194  0.00  0.00    +0.008 A 
ATOM     11  C   UNL     1      13.861  27.623   6.360  0.00  0.00    -0.025 A 
ATOM     12  C   UNL     1      15.123  27.370   6.897  0.00  0.00    +0.008 A 
ATOM     13  C   UNL     1      15.982  26.467   6.269  0.00  0.00    +0.013 A 
BRANCH   8  15
ATOM     14  F   UNL     1      17.444  24.331   5.260  0.00  0.00    -0.166 F 
ATOM     15  C   UNL     1      16.494  24.852   4.430  0.00  0.00    +0.417 C 
ATOM     16  F   UNL     1      15.834  23.778   3.907  0.00  0.00    -0.166 F 
ATOM     17  F   UNL     1      17.192  25.396   3.388  0.00  0.00    -0.166 F 
ENDBRANCH   8  15
ENDBRANCH   6  11
ENDBRANCH   1   7
BRANCH   3  18
ATOM     18  C   UNL     1      10.120  32.265   9.786  0.00  0.00    +0.287 C 
BRANCH  18  19
ATOM     19  O   UNL     1      10.046  31.320  10.851  0.00  0.00    -0.486 OA
BRANCH  19  20
ATOM     20  C   UNL     1      11.046  31.347  11.775  0.00  0.00    +0.121 A 
ATOM     21  C   UNL     1      12.211  30.609  11.565  0.00  0.00    +0.046 A 
ATOM     22  C   UNL     1      13.234  30.637  12.511  0.00  0.00    +0.007 A 
ATOM     23  C   UNL     1      13.093  31.402  13.669  0.00  0.00    -0.047 A 
ATOM     24  C   UNL     1      11.927  32.140  13.880  0.00  0.00    +0.007 A 
ATOM     25  C   UNL     1      10.904  32.113  12.932  0.00  0.00    +0.046 A 
BRANCH  23  26
ATOM     26  C   UNL     1      14.199  31.433  14.694  0.00  0.00    +0.035 C 
BRANCH  26  27
ATOM     27  C   UNL     1      14.414  30.092  15.407  0.00  0.00    +0.006 C 
BRANCH  27  28
ATOM     28  C   UNL     1      14.079  30.152  16.903  0.00  0.00    +0.024 C 
BRANCH  28  29
ATOM     29  C   UNL     1      14.184  31.566  17.481  0.00  0.00    +0.145 C 
BRANCH  29  30
ATOM     30  N   UNL     1      15.306  31.745  18.395  0.00  0.00    -0.252 N 
ATOM     31  C   UNL     1      15.808  30.843  19.283  0.00  0.00    +0.130 A 
ATOM     32  C   UNL     1      16.847  31.518  19.874  0.00  0.00    +0.156 A 
ATOM     33  N   UNL     1      16.942  32.773  19.341  0.00  0.00    -0.138 NA
ATOM     34  N   UNL     1      15.986  32.902  18.428  0.00  0.00    -0.066 NA
ENDBRANCH  29  30
ENDBRANCH  28  29
ENDBRANCH  27  28
ENDBRANCH  26  27
ENDBRANCH  23  26
ENDBRANCH  19  20
ENDBRANCH  18  19
ENDBRANCH   3  18
TORSDOF 11
ENDMDL
MODEL 13
REMARK VINA RESULT:      -8.1      4.293      7.374
REMARK  Name = 6444692
REMARK  11 active torsions:
REMARK  status: ('A' for Active; 'I' for Inactive)
REMARK    1  A    between atoms: O_4  and  C_19
REMARK    2  A    between atoms: O_4  and  C_21
REMARK    3  A    between atoms: N_6  and  C_13
REMARK    4  A    between atoms: C_10  and  C_11
REMARK    5  A    between atoms: C_10  and  C_12
REMARK    6  A    between atoms: C_11  and  C_13
REMARK    7  A    between atoms: C_12  and  C_14
REMARK    8  A    between atoms: C_21  and  C_23
REMARK    9  A    between atoms: C_24  and  C_28
REMARK   10  A    between atoms: C_25  and  C_31
REMARK   11  A    between atoms: C_27  and  C_34
REMARK                            x       y       z     vdW  Elec       q    Type
REMARK                         _______ _______ _______ _____ _____    ______ ____
ROOT
ATOM      1  C   UNL     1      11.287  30.090   8.341  0.00  0.00    +0.220 A 
ATOM      2  N   UNL     1      11.025  30.134   9.628  0.00  0.00    -0.211 NA
ATOM      3  C   UNL     1      10.512  31.395   9.798  0.00  0.00    +0.117 A 
ATOM      4  C   UNL     1      10.488  32.058   8.596  0.00  0.00    +0.224 A 
ATOM      5  O   UNL     1      10.987  31.222   7.645  0.00  0.00    -0.444 OA
ENDROOT
BRANCH   1   7
ATOM      6  C   UNL     1      13.163  28.684   7.642  0.00  0.00    +0.013 C 
ATOM      7  C   UNL     1      11.839  28.966   7.681  0.00  0.00    +0.068 C 
BRANCH   6  11
ATOM      8  C   UNL     1      14.875  25.278   5.734  0.00  0.00    +0.055 A 
ATOM      9  C   UNL     1      15.231  25.596   7.044  0.00  0.00    +0.013 A 
ATOM     10  C   UNL     1      14.671  26.709   7.669  0.00  0.00    +0.008 A 
ATOM     11  C   UNL     1      13.754  27.506   6.983  0.00  0.00    -0.025 A 
ATOM     12  C   UNL     1      13.398  27.188   5.672  0.00  0.00    +0.008 A 
ATOM     13  C   UNL     1      13.958  26.074   5.047  0.00  0.00    +0.013 A 
BRANCH   8  15
ATOM     14  F   UNL     1      16.506  23.529   5.767  0.00  0.00    -0.166 F 
ATOM     15  C   UNL     1      15.474  24.085   5.067  0.00  0.00    +0.417 C 
ATOM     16  F   UNL     1      14.572  23.078   4.882  0.00  0.00    -0.166 F 
ATOM     17  F   UNL     1      15.987  24.351   3.829  0.00  0.00    -0.166 F 
ENDBRANCH   8  15
ENDBRANCH   6  11
ENDBRANCH   1   7
BRANCH   3  18
ATOM     18  C   UNL     1      10.075  31.874  11.141  0.00  0.00    +0.287 C 
BRANCH  18  19
ATOM     19  O   UNL     1      11.168  31.972  12.052  0.00  0.00    -0.486 OA
BRANCH  19  20
ATOM     20  C   UNL     1      11.260  31.014  13.015  0.00  0.00    +0.121 A 
ATOM     21  C   UNL     1      10.321  30.968  14.046  0.00  0.00    +0.046 A 
ATOM     22  C   UNL     1      10.415  29.987  15.032  0.00  0.00    +0.007 A 
ATOM     23  C   UNL     1      11.450  29.052  14.989  0.00  0.00    -0.047 A 
ATOM     24  C   UNL     1      12.389  29.098  13.958  0.00  0.00    +0.007 A 
ATOM     25  C   UNL     1      12.294  30.078  12.971  0.00  0.00    +0.046 A 
BRANCH  23  26
ATOM     26  C   UNL     1      11.553  27.991  16.055  0.00  0.00    +0.035 C 
BRANCH  26  27
ATOM     27  C   UNL     1      11.545  26.560  15.502  0.00  0.00    +0.006 C 
BRANCH  27  28
ATOM     28  C   UNL     1      12.400  25.595  16.334  0.00  0.00    +0.024 C 
BRANCH  28  29
ATOM     29  C   UNL     1      13.903  25.789  16.115  0.00  0.00    +0.145 C 
BRANCH  29  30
ATOM     30  N   UNL     1      14.630  26.159  17.324  0.00  0.00    -0.252 N 
ATOM     31  C   UNL     1      15.917  26.589  17.421  0.00  0.00    +0.130 A 
ATOM     32  C   UNL     1      16.085  26.798  18.768  0.00  0.00    +0.156 A 
ATOM     33  N   UNL     1      14.927  26.497  19.427  0.00  0.00    -0.138 NA
ATOM     34  N   UNL     1      14.033  26.104  18.525  0.00  0.00    -0.066 NA
ENDBRANCH  29  30
ENDBRANCH  28  29
ENDBRANCH  27  28
ENDBRANCH  26  27
ENDBRANCH  23  26
ENDBRANCH  19  20
ENDBRANCH  18  19
ENDBRANCH   3  18
TORSDOF 11
ENDMDL
MODEL 14
REMARK VINA RESULT:      -8.0      4.392      6.360
REMARK  Name = 6444692
REMARK  11 active torsions:
REMARK  status: ('A' for Active; 'I' for Inactive)
REMARK    1  A    between atoms: O_4  and  C_19
REMARK    2  A    between atoms: O_4  and  C_21
REMARK    3  A    between atoms: N_6  and  C_13
REMARK    4  A    between atoms: C_10  and  C_11
REMARK    5  A    between atoms: C_10  and  C_12
REMARK    6  A    between atoms: C_11  and  C_13
REMARK    7  A    between atoms: C_12  and  C_14
REMARK    8  A    between atoms: C_21  and  C_23
REMARK    9  A    between atoms: C_24  and  C_28
REMARK   10  A    between atoms: C_25  and  C_31
REMARK   11  A    between atoms: C_27  and  C_34
REMARK                            x       y       z     vdW  Elec       q    Type
REMARK                         _______ _______ _______ _____ _____    ______ ____
ROOT
ATOM      1  C   UNL     1      11.031  29.792   7.367  0.00  0.00    +0.220 A 
ATOM      2  N   UNL     1      10.859  30.041   8.646  0.00  0.00    -0.211 NA
ATOM      3  C   UNL     1       9.955  31.072   8.644  0.00  0.00    +0.117 A 
ATOM      4  C   UNL     1       9.620  31.401   7.354  0.00  0.00    +0.224 A 
ATOM      5  O   UNL     1      10.311  30.577   6.519  0.00  0.00    -0.444 OA
ENDROOT
BRANCH   1   7
ATOM      6  C   UNL     1      13.049  28.413   7.455  0.00  0.00    +0.013 C 
ATOM      7  C   UNL     1      11.892  28.789   6.862  0.00  0.00    +0.068 C 
BRANCH   6  11
ATOM      8  C   UNL     1      15.639  25.346   6.016  0.00  0.00    +0.055 A 
ATOM      9  C   UNL     1      14.762  25.987   5.141  0.00  0.00    +0.013 A 
ATOM     10  C   UNL     1      13.916  26.991   5.611  0.00  0.00    +0.008 A 
ATOM     11  C   UNL     1      13.945  27.354   6.958  0.00  0.00    -0.025 A 
ATOM     12  C   UNL     1      14.821  26.713   7.833  0.00  0.00    +0.008 A 
ATOM     13  C   UNL     1      15.668  25.709   7.363  0.00  0.00    +0.013 A 
BRANCH   8  15
ATOM     14  F   UNL     1      16.750  24.322   4.164  0.00  0.00    -0.166 F 
ATOM     15  C   UNL     1      16.544  24.274   5.512  0.00  0.00    +0.417 C 
ATOM     16  F   UNL     1      17.787  24.328   6.075  0.00  0.00    -0.166 F 
ATOM     17  F   UNL     1      16.086  23.010   5.759  0.00  0.00    -0.166 F 
ENDBRANCH   8  15
ENDBRANCH   6  11
ENDBRANCH   1   7
BRANCH   3  18
ATOM     18  C   UNL     1       9.472  31.676   9.919  0.00  0.00    +0.287 C 
BRANCH  18  19
ATOM     19  O   UNL     1      10.173  32.877  10.238  0.00  0.00    -0.486 OA
BRANCH  19  20
ATOM     20  C   UNL     1       9.453  34.033  10.239  0.00  0.00    +0.121 A 
ATOM     21  C   UNL     1       9.740  35.032  11.169  0.00  0.00    +0.046 A 
ATOM     22  C   UNL     1       9.003  36.216  11.171  0.00  0.00    +0.007 A 
ATOM     23  C   UNL     1       7.978  36.401  10.242  0.00  0.00    -0.047 A 
ATOM     24  C   UNL     1       7.692  35.401   9.312  0.00  0.00    +0.007 A 
ATOM     25  C   UNL     1       8.429  34.218   9.310  0.00  0.00    +0.046 A 
BRANCH  23  26
ATOM     26  C   UNL     1       7.181  37.680  10.243  0.00  0.00    +0.035 C 
BRANCH  26  27
ATOM     27  C   UNL     1       6.827  38.186   8.839  0.00  0.00    +0.006 C 
BRANCH  27  28
ATOM     28  C   UNL     1       5.380  37.872   8.439  0.00  0.00    +0.024 C 
BRANCH  28  29
ATOM     29  C   UNL     1       5.167  37.872   6.923  0.00  0.00    +0.145 C 
BRANCH  29  30
ATOM     30  N   UNL     1       5.866  36.795   6.231  0.00  0.00    -0.252 N 
ATOM     31  C   UNL     1       5.599  35.461   6.284  0.00  0.00    +0.130 A 
ATOM     32  C   UNL     1       6.543  34.911   5.452  0.00  0.00    +0.156 A 
ATOM     33  N   UNL     1       7.331  35.900   4.935  0.00  0.00    -0.138 NA
ATOM     34  N   UNL     1       6.904  37.061   5.422  0.00  0.00    -0.066 NA
ENDBRANCH  29  30
ENDBRANCH  28  29
ENDBRANCH  27  28
ENDBRANCH  26  27
ENDBRANCH  23  26
ENDBRANCH  19  20
ENDBRANCH  18  19
ENDBRANCH   3  18
TORSDOF 11
ENDMDL
MODEL 15
REMARK VINA RESULT:      -8.0      3.899      6.858
REMARK  Name = 6444692
REMARK  11 active torsions:
REMARK  status: ('A' for Active; 'I' for Inactive)
REMARK    1  A    between atoms: O_4  and  C_19
REMARK    2  A    between atoms: O_4  and  C_21
REMARK    3  A    between atoms: N_6  and  C_13
REMARK    4  A    between atoms: C_10  and  C_11
REMARK    5  A    between atoms: C_10  and  C_12
REMARK    6  A    between atoms: C_11  and  C_13
REMARK    7  A    between atoms: C_12  and  C_14
REMARK    8  A    between atoms: C_21  and  C_23
REMARK    9  A    between atoms: C_24  and  C_28
REMARK   10  A    between atoms: C_25  and  C_31
REMARK   11  A    between atoms: C_27  and  C_34
REMARK                            x       y       z     vdW  Elec       q    Type
REMARK                         _______ _______ _______ _____ _____    ______ ____
ROOT
ATOM      1  C   UNL     1      11.714  30.251   7.656  0.00  0.00    +0.220 A 
ATOM      2  N   UNL     1      11.725  30.572   8.930  0.00  0.00    -0.211 NA
ATOM      3  C   UNL     1      10.802  31.584   9.004  0.00  0.00    +0.117 A 
ATOM      4  C   UNL     1      10.273  31.830   7.762  0.00  0.00    +0.224 A 
ATOM      5  O   UNL     1      10.857  30.971   6.881  0.00  0.00    -0.444 OA
ENDROOT
BRANCH   1   7
ATOM      6  C   UNL     1      13.504  28.587   7.749  0.00  0.00    +0.013 C 
ATOM      7  C   UNL     1      12.518  29.235   7.086  0.00  0.00    +0.068 C 
BRANCH   6  11
ATOM      8  C   UNL     1      15.903  25.469   6.105  0.00  0.00    +0.055 A 
ATOM      9  C   UNL     1      15.070  26.220   5.276  0.00  0.00    +0.013 A 
ATOM     10  C   UNL     1      14.286  27.240   5.813  0.00  0.00    +0.008 A 
ATOM     11  C   UNL     1      14.334  27.510   7.181  0.00  0.00    -0.025 A 
ATOM     12  C   UNL     1      15.167  26.760   8.011  0.00  0.00    +0.008 A 
ATOM     13  C   UNL     1      15.952  25.739   7.473  0.00  0.00    +0.013 A 
BRANCH   8  15
ATOM     14  F   UNL     1      18.017  24.355   6.017  0.00  0.00    -0.166 F 
ATOM     15  C   UNL     1      16.743  24.379   5.529  0.00  0.00    +0.417 C 
ATOM     16  F   UNL     1      16.232  23.137   5.776  0.00  0.00    -0.166 F 
ATOM     17  F   UNL     1      16.882  24.455   4.172  0.00  0.00    -0.166 F 
ENDBRANCH   8  15
ENDBRANCH   6  11
ENDBRANCH   1   7
BRANCH   3  18
ATOM     18  C   UNL     1      10.496  32.254  10.301  0.00  0.00    +0.287 C 
BRANCH  18  19
ATOM     19  O   UNL     1      10.277  31.312  11.348  0.00  0.00    -0.486 OA
BRANCH  19  20
ATOM     20  C   UNL     1      11.162  31.318  12.383  0.00  0.00    +0.121 A 
ATOM     21  C   UNL     1      12.433  30.769  12.217  0.00  0.00    +0.046 A 
ATOM     22  C   UNL     1      13.339  30.774  13.277  0.00  0.00    +0.007 A 
ATOM     23  C   UNL     1      12.974  31.328  14.504  0.00  0.00    -0.047 A 
ATOM     24  C   UNL     1      11.702  31.877  14.670  0.00  0.00    +0.007 A 
ATOM     25  C   UNL     1      10.796  31.873  13.610  0.00  0.00    +0.046 A 
BRANCH  23  26
ATOM     26  C   UNL     1      13.953  31.335  15.651  0.00  0.00    +0.035 C 
BRANCH  26  27
ATOM     27  C   UNL     1      13.483  30.525  16.866  0.00  0.00    +0.006 C 
BRANCH  27  28
ATOM     28  C   UNL     1      14.427  29.366  17.211  0.00  0.00    +0.024 C 
BRANCH  28  29
ATOM     29  C   UNL     1      13.717  28.210  17.920  0.00  0.00    +0.145 C 
BRANCH  29  30
ATOM     30  N   UNL     1      13.503  27.043  17.071  0.00  0.00    -0.252 N 
ATOM     31  C   UNL     1      12.377  26.286  16.967  0.00  0.00    +0.130 A 
ATOM     32  C   UNL     1      12.714  25.335  16.036  0.00  0.00    +0.156 A 
ATOM     33  N   UNL     1      13.998  25.539  15.615  0.00  0.00    -0.138 NA
ATOM     34  N   UNL     1      14.476  26.598  16.261  0.00  0.00    -0.066 NA
ENDBRANCH  29  30
ENDBRANCH  28  29
ENDBRANCH  27  28
ENDBRANCH  26  27
ENDBRANCH  23  26
ENDBRANCH  19  20
ENDBRANCH  18  19
ENDBRANCH   3  18
TORSDOF 11
ENDMDL
MODEL 16
REMARK VINA RESULT:      -7.9      3.053      4.671
REMARK  Name = 6444692
REMARK  11 active torsions:
REMARK  status: ('A' for Active; 'I' for Inactive)
REMARK    1  A    between atoms: O_4  and  C_19
REMARK    2  A    between atoms: O_4  and  C_21
REMARK    3  A    between atoms: N_6  and  C_13
REMARK    4  A    between atoms: C_10  and  C_11
REMARK    5  A    between atoms: C_10  and  C_12
REMARK    6  A    between atoms: C_11  and  C_13
REMARK    7  A    between atoms: C_12  and  C_14
REMARK    8  A    between atoms: C_21  and  C_23
REMARK    9  A    between atoms: C_24  and  C_28
REMARK   10  A    between atoms: C_25  and  C_31
REMARK   11  A    between atoms: C_27  and  C_34
REMARK                            x       y       z     vdW  Elec       q    Type
REMARK                         _______ _______ _______ _____ _____    ______ ____
ROOT
ATOM      1  C   UNL     1      14.890  25.328   5.807  0.00  0.00    +0.220 A 
ATOM      2  N   UNL     1      14.340  26.469   6.155  0.00  0.00    -0.211 NA
ATOM      3  C   UNL     1      15.073  26.847   7.251  0.00  0.00    +0.117 A 
ATOM      4  C   UNL     1      16.040  25.909   7.515  0.00  0.00    +0.224 A 
ATOM      5  O   UNL     1      15.931  24.921   6.585  0.00  0.00    -0.444 OA
ENDROOT
BRANCH   1   7
ATOM      6  C   UNL     1      14.563  24.937   3.415  0.00  0.00    +0.013 C 
ATOM      7  C   UNL     1      14.466  24.544   4.707  0.00  0.00    +0.068 C 
BRANCH   6  11
ATOM      8  C   UNL     1      13.368  22.591   0.061  0.00  0.00    +0.055 A 
ATOM      9  C   UNL     1      13.964  23.836  -0.136  0.00  0.00    +0.013 A 
ATOM     10  C   UNL     1      14.356  24.603   0.961  0.00  0.00    +0.008 A 
ATOM     11  C   UNL     1      14.151  24.125   2.256  0.00  0.00    -0.025 A 
ATOM     12  C   UNL     1      13.555  22.880   2.452  0.00  0.00    +0.008 A 
ATOM     13  C   UNL     1      13.163  22.112   1.355  0.00  0.00    +0.013 A 
BRANCH   8  15
ATOM     14  F   UNL     1      13.997  21.202  -1.782  0.00  0.00    -0.166 F 
ATOM     15  C   UNL     1      12.951  21.770  -1.113  0.00  0.00    +0.417 C 
ATOM     16  F   UNL     1      12.131  20.736  -0.766  0.00  0.00    -0.166 F 
ATOM     17  F   UNL     1      12.266  22.479  -2.060  0.00  0.00    -0.166 F 
ENDBRANCH   8  15
ENDBRANCH   6  11
ENDBRANCH   1   7
BRANCH   3  18
ATOM     18  C   UNL     1      14.776  28.115   7.977  0.00  0.00    +0.287 C 
BRANCH  18  19
ATOM     19  O   UNL     1      14.409  29.166   7.085  0.00  0.00    -0.486 OA
BRANCH  19  20
ATOM     20  C   UNL     1      13.139  29.648   7.184  0.00  0.00    +0.121 A 
ATOM     21  C   UNL     1      12.514  30.201   6.066  0.00  0.00    +0.046 A 
ATOM     22  C   UNL     1      11.214  30.695   6.168  0.00  0.00    +0.007 A 
ATOM     23  C   UNL     1      10.539  30.637   7.387  0.00  0.00    -0.047 A 
ATOM     24  C   UNL     1      11.164  30.083   8.505  0.00  0.00    +0.007 A 
ATOM     25  C   UNL     1      12.464  29.589   8.403  0.00  0.00    +0.046 A 
BRANCH  23  26
ATOM     26  C   UNL     1       9.133  31.170   7.497  0.00  0.00    +0.035 C 
BRANCH  26  27
ATOM     27  C   UNL     1       8.796  31.736   8.882  0.00  0.00    +0.006 C 
BRANCH  27  28
ATOM     28  C   UNL     1       9.092  33.236   9.003  0.00  0.00    +0.024 C 
BRANCH  28  29
ATOM     29  C   UNL     1      10.181  33.548  10.032  0.00  0.00    +0.145 C 
BRANCH  29  30
ATOM     30  N   UNL     1       9.670  34.111  11.276  0.00  0.00    -0.252 N 
ATOM     31  C   UNL     1      10.382  34.679  12.287  0.00  0.00    +0.130 A 
ATOM     32  C   UNL     1       9.419  35.040  13.197  0.00  0.00    +0.156 A 
ATOM     33  N   UNL     1       8.186  34.689  12.723  0.00  0.00    -0.138 NA
ATOM     34  N   UNL     1       8.352  34.117  11.535  0.00  0.00    -0.066 NA
ENDBRANCH  29  30
ENDBRANCH  28  29
ENDBRANCH  27  28
ENDBRANCH  26  27
ENDBRANCH  23  26
ENDBRANCH  19  20
ENDBRANCH  18  19
ENDBRANCH   3  18
TORSDOF 11
ENDMDL
MODEL 17
REMARK VINA RESULT:      -7.8      6.075      8.243
REMARK  Name = 6444692
REMARK  11 active torsions:
REMARK  status: ('A' for Active; 'I' for Inactive)
REMARK    1  A    between atoms: O_4  and  C_19
REMARK    2  A    between atoms: O_4  and  C_21
REMARK    3  A    between atoms: N_6  and  C_13
REMARK    4  A    between atoms: C_10  and  C_11
REMARK    5  A    between atoms: C_10  and  C_12
REMARK    6  A    between atoms: C_11  and  C_13
REMARK    7  A    between atoms: C_12  and  C_14
REMARK    8  A    between atoms: C_21  and  C_23
REMARK    9  A    between atoms: C_24  and  C_28
REMARK   10  A    between atoms: C_25  and  C_31
REMARK   11  A    between atoms: C_27  and  C_34
REMARK                            x       y       z     vdW  Elec       q    Type
REMARK                         _______ _______ _______ _____ _____    ______ ____
ROOT
ATOM      1  C   UNL     1      11.183  29.756   7.622  0.00  0.00    +0.220 A 
ATOM      2  N   UNL     1      10.086  30.100   6.986  0.00  0.00    -0.211 NA
ATOM      3  C   UNL     1       9.612  31.151   7.729  0.00  0.00    +0.117 A 
ATOM      4  C   UNL     1      10.452  31.394   8.788  0.00  0.00    +0.224 A 
ATOM      5  O   UNL     1      11.473  30.495   8.728  0.00  0.00    -0.444 OA
ENDROOT
BRANCH   1   7
ATOM      6  C   UNL     1      13.375  28.818   7.076  0.00  0.00    +0.013 C 
ATOM      7  C   UNL     1      12.035  28.698   7.221  0.00  0.00    +0.068 C 
BRANCH   6  11
ATOM      8  C   UNL     1      15.996  25.650   5.946  0.00  0.00    +0.055 A 
ATOM      9  C   UNL     1      15.822  25.964   7.293  0.00  0.00    +0.013 A 
ATOM     10  C   UNL     1      14.964  26.999   7.663  0.00  0.00    +0.008 A 
ATOM     11  C   UNL     1      14.281  27.722   6.685  0.00  0.00    -0.025 A 
ATOM     12  C   UNL     1      14.455  27.409   5.338  0.00  0.00    +0.008 A 
ATOM     13  C   UNL     1      15.313  26.373   4.967  0.00  0.00    +0.013 A 
BRANCH   8  15
ATOM     14  F   UNL     1      18.093  24.539   6.237  0.00  0.00    -0.166 F 
ATOM     15  C   UNL     1      16.913  24.542   5.551  0.00  0.00    +0.417 C 
ATOM     16  F   UNL     1      16.366  23.309   5.757  0.00  0.00    -0.166 F 
ATOM     17  F   UNL     1      17.268  24.570   4.231  0.00  0.00    -0.166 F 
ENDBRANCH   8  15
ENDBRANCH   6  11
ENDBRANCH   1   7
BRANCH   3  18
ATOM     18  C   UNL     1       8.354  31.857   7.352  0.00  0.00    +0.287 C 
BRANCH  18  19
ATOM     19  O   UNL     1       8.161  31.882   5.939  0.00  0.00    -0.486 OA
BRANCH  19  20
ATOM     20  C   UNL     1       7.003  32.433   5.481  0.00  0.00    +0.121 A 
ATOM     21  C   UNL     1       6.172  33.136   6.353  0.00  0.00    +0.046 A 
ATOM     22  C   UNL     1       4.986  33.700   5.884  0.00  0.00    +0.007 A 
ATOM     23  C   UNL     1       4.631  33.560   4.542  0.00  0.00    -0.047 A 
ATOM     24  C   UNL     1       5.462  32.857   3.670  0.00  0.00    +0.007 A 
ATOM     25  C   UNL     1       6.648  32.294   4.139  0.00  0.00    +0.046 A 
BRANCH  23  26
ATOM     26  C   UNL     1       3.348  34.170   4.034  0.00  0.00    +0.035 C 
BRANCH  26  27
ATOM     27  C   UNL     1       2.436  33.171   3.311  0.00  0.00    +0.006 C 
BRANCH  27  28
ATOM     28  C   UNL     1       2.093  31.947   4.169  0.00  0.00    +0.024 C 
BRANCH  28  29
ATOM     29  C   UNL     1       0.599  31.611   4.157  0.00  0.00    +0.145 C 
BRANCH  29  30
ATOM     30  N   UNL     1       0.314  30.213   3.856  0.00  0.00    -0.252 N 
ATOM     31  C   UNL     1       0.139  29.191   4.737  0.00  0.00    +0.130 A 
ATOM     32  C   UNL     1      -0.105  28.108   3.930  0.00  0.00    +0.156 A 
ATOM     33  N   UNL     1      -0.072  28.496   2.619  0.00  0.00    -0.138 NA
ATOM     34  N   UNL     1       0.187  29.799   2.585  0.00  0.00    -0.066 NA
ENDBRANCH  29  30
ENDBRANCH  28  29
ENDBRANCH  27  28
ENDBRANCH  26  27
ENDBRANCH  23  26
ENDBRANCH  19  20
ENDBRANCH  18  19
ENDBRANCH   3  18
TORSDOF 11
ENDMDL
MODEL 18
REMARK VINA RESULT:      -7.8      2.856      4.349
REMARK  Name = 6444692
REMARK  11 active torsions:
REMARK  status: ('A' for Active; 'I' for Inactive)
REMARK    1  A    between atoms: O_4  and  C_19
REMARK    2  A    between atoms: O_4  and  C_21
REMARK    3  A    between atoms: N_6  and  C_13
REMARK    4  A    between atoms: C_10  and  C_11
REMARK    5  A    between atoms: C_10  and  C_12
REMARK    6  A    between atoms: C_11  and  C_13
REMARK    7  A    between atoms: C_12  and  C_14
REMARK    8  A    between atoms: C_21  and  C_23
REMARK    9  A    between atoms: C_24  and  C_28
REMARK   10  A    between atoms: C_25  and  C_31
REMARK   11  A    between atoms: C_27  and  C_34
REMARK                            x       y       z     vdW  Elec       q    Type
REMARK                         _______ _______ _______ _____ _____    ______ ____
ROOT
ATOM      1  C   UNL     1      14.752  29.406  12.136  0.00  0.00    +0.220 A 
ATOM      2  N   UNL     1      13.864  30.374  12.159  0.00  0.00    -0.211 NA
ATOM      3  C   UNL     1      13.770  30.678  13.494  0.00  0.00    +0.117 A 
ATOM      4  C   UNL     1      14.612  29.872  14.219  0.00  0.00    +0.224 A 
ATOM      5  O   UNL     1      15.254  29.045  13.349  0.00  0.00    -0.444 OA
ENDROOT
BRANCH   1   7
ATOM      6  C   UNL     1      15.560  27.456  10.899  0.00  0.00    +0.013 C 
ATOM      7  C   UNL     1      15.188  28.757  10.956  0.00  0.00    +0.068 C 
BRANCH   6  11
ATOM      8  C   UNL     1      16.807  25.431   7.361  0.00  0.00    +0.055 A 
ATOM      9  C   UNL     1      15.662  26.226   7.342  0.00  0.00    +0.013 A 
ATOM     10  C   UNL     1      15.254  26.889   8.499  0.00  0.00    +0.008 A 
ATOM     11  C   UNL     1      15.992  26.756   9.676  0.00  0.00    -0.025 A 
ATOM     12  C   UNL     1      17.137  25.961   9.695  0.00  0.00    +0.008 A 
ATOM     13  C   UNL     1      17.546  25.298   8.537  0.00  0.00    +0.013 A 
BRANCH   8  15
ATOM     14  F   UNL     1      17.260  25.520   5.014  0.00  0.00    -0.166 F 
ATOM     15  C   UNL     1      17.244  24.723   6.122  0.00  0.00    +0.417 C 
ATOM     16  F   UNL     1      18.505  24.212   6.226  0.00  0.00    -0.166 F 
ATOM     17  F   UNL     1      16.446  23.665   5.788  0.00  0.00    -0.166 F 
ENDBRANCH   8  15
ENDBRANCH   6  11
ENDBRANCH   1   7
BRANCH   3  18
ATOM     18  C   UNL     1      12.850  31.747  13.978  0.00  0.00    +0.287 C 
BRANCH  18  19
ATOM     19  O   UNL     1      11.490  31.319  13.977  0.00  0.00    -0.486 OA
BRANCH  19  20
ATOM     20  C   UNL     1      10.617  32.029  13.211  0.00  0.00    +0.121 A 
ATOM     21  C   UNL     1       9.307  31.578  13.046  0.00  0.00    +0.046 A 
ATOM     22  C   UNL     1       8.413  32.305  12.260  0.00  0.00    +0.007 A 
ATOM     23  C   UNL     1       8.828  33.483  11.639  0.00  0.00    -0.047 A 
ATOM     24  C   UNL     1      10.138  33.934  11.804  0.00  0.00    +0.007 A 
ATOM     25  C   UNL     1      11.032  33.207  12.590  0.00  0.00    +0.046 A 
BRANCH  23  26
ATOM     26  C   UNL     1       7.862  34.270  10.790  0.00  0.00    +0.035 C 
BRANCH  26  27
ATOM     27  C   UNL     1       7.355  33.502   9.562  0.00  0.00    +0.006 C 
BRANCH  27  28
ATOM     28  C   UNL     1       8.303  33.607   8.361  0.00  0.00    +0.024 C 
BRANCH  28  29
ATOM     29  C   UNL     1       8.064  32.514   7.315  0.00  0.00    +0.145 C 
BRANCH  29  30
ATOM     30  N   UNL     1       9.194  31.608   7.144  0.00  0.00    -0.252 N 
ATOM     31  C   UNL     1      10.479  31.930   6.833  0.00  0.00    +0.130 A 
ATOM     32  C   UNL     1      11.117  30.715   6.802  0.00  0.00    +0.156 A 
ATOM     33  N   UNL     1      10.224  29.720   7.086  0.00  0.00    -0.138 NA
ATOM     34  N   UNL     1       9.039  30.283   7.297  0.00  0.00    -0.066 NA
ENDBRANCH  29  30
ENDBRANCH  28  29
ENDBRANCH  27  28
ENDBRANCH  26  27
ENDBRANCH  23  26
ENDBRANCH  19  20
ENDBRANCH  18  19
ENDBRANCH   3  18
TORSDOF 11
ENDMDL
MODEL 19
REMARK VINA RESULT:      -7.7      5.417      7.283
REMARK  Name = 6444692
REMARK  11 active torsions:
REMARK  status: ('A' for Active; 'I' for Inactive)
REMARK    1  A    between atoms: O_4  and  C_19
REMARK    2  A    between atoms: O_4  and  C_21
REMARK    3  A    between atoms: N_6  and  C_13
REMARK    4  A    between atoms: C_10  and  C_11
REMARK    5  A    between atoms: C_10  and  C_12
REMARK    6  A    between atoms: C_11  and  C_13
REMARK    7  A    between atoms: C_12  and  C_14
REMARK    8  A    between atoms: C_21  and  C_23
REMARK    9  A    between atoms: C_24  and  C_28
REMARK   10  A    between atoms: C_25  and  C_31
REMARK   11  A    between atoms: C_27  and  C_34
REMARK                            x       y       z     vdW  Elec       q    Type
REMARK                         _______ _______ _______ _____ _____    ______ ____
ROOT
ATOM      1  C   UNL     1      10.983  30.259   7.200  0.00  0.00    +0.220 A 
ATOM      2  N   UNL     1      10.912  30.622   8.461  0.00  0.00    -0.211 NA
ATOM      3  C   UNL     1       9.952  31.602   8.449  0.00  0.00    +0.117 A 
ATOM      4  C   UNL     1       9.485  31.786   7.171  0.00  0.00    +0.224 A 
ATOM      5  O   UNL     1      10.146  30.921   6.354  0.00  0.00    -0.444 OA
ENDROOT
BRANCH   1   7
ATOM      6  C   UNL     1      12.678  28.520   7.493  0.00  0.00    +0.013 C 
ATOM      7  C   UNL     1      11.852  29.254   6.711  0.00  0.00    +0.068 C 
BRANCH   6  11
ATOM      8  C   UNL     1      15.258  25.432   6.083  0.00  0.00    +0.055 A 
ATOM      9  C   UNL     1      14.175  25.844   5.307  0.00  0.00    +0.013 A 
ATOM     10  C   UNL     1      13.332  26.855   5.768  0.00  0.00    +0.008 A 
ATOM     11  C   UNL     1      13.571  27.453   7.005  0.00  0.00    -0.025 A 
ATOM     12  C   UNL     1      14.654  27.041   7.781  0.00  0.00    +0.008 A 
ATOM     13  C   UNL     1      15.498  26.031   7.320  0.00  0.00    +0.013 A 
BRANCH   8  15
ATOM     14  F   UNL     1      15.538  23.147   5.437  0.00  0.00    -0.166 F 
ATOM     15  C   UNL     1      16.161  24.352   5.589  0.00  0.00    +0.417 C 
ATOM     16  F   UNL     1      16.707  24.640   4.371  0.00  0.00    -0.166 F 
ATOM     17  F   UNL     1      17.220  24.104   6.416  0.00  0.00    -0.166 F 
ENDBRANCH   8  15
ENDBRANCH   6  11
ENDBRANCH   1   7
BRANCH   3  18
ATOM     18  C   UNL     1       9.551  32.304   9.702  0.00  0.00    +0.287 C 
BRANCH  18  19
ATOM     19  O   UNL     1      10.458  33.352  10.038  0.00  0.00    -0.486 OA
BRANCH  19  20
ATOM     20  C   UNL     1      10.037  34.266  10.955  0.00  0.00    +0.121 A 
ATOM     21  C   UNL     1      10.457  34.169  12.282  0.00  0.00    +0.046 A 
ATOM     22  C   UNL     1      10.025  35.104  13.221  0.00  0.00    +0.007 A 
ATOM     23  C   UNL     1       9.172  36.138  12.834  0.00  0.00    -0.047 A 
ATOM     24  C   UNL     1       8.752  36.236  11.507  0.00  0.00    +0.007 A 
ATOM     25  C   UNL     1       9.185  35.301  10.568  0.00  0.00    +0.046 A 
BRANCH  23  26
ATOM     26  C   UNL     1       8.705  37.151  13.849  0.00  0.00    +0.035 C 
BRANCH  26  27
ATOM     27  C   UNL     1       8.140  38.433  13.225  0.00  0.00    +0.006 C 
BRANCH  27  28
ATOM     28  C   UNL     1       9.088  39.631  13.364  0.00  0.00    +0.024 C 
BRANCH  28  29
ATOM     29  C   UNL     1       8.821  40.726  12.328  0.00  0.00    +0.145 C 
BRANCH  29  30
ATOM     30  N   UNL     1       9.638  40.609  11.125  0.00  0.00    -0.252 N 
ATOM     31  C   UNL     1       9.297  40.030   9.941  0.00  0.00    +0.130 A 
ATOM     32  C   UNL     1      10.417  40.200   9.166  0.00  0.00    +0.156 A 
ATOM     33  N   UNL     1      11.377  40.859   9.883  0.00  0.00    -0.138 NA
ATOM     34  N   UNL     1      10.884  41.107  11.092  0.00  0.00    -0.066 NA
ENDBRANCH  29  30
ENDBRANCH  28  29
ENDBRANCH  27  28
ENDBRANCH  26  27
ENDBRANCH  23  26
ENDBRANCH  19  20
ENDBRANCH  18  19
ENDBRANCH   3  18
TORSDOF 11
ENDMDL
MODEL 20
REMARK VINA RESULT:      -7.5      4.376      7.561
REMARK  Name = 6444692
REMARK  11 active torsions:
REMARK  status: ('A' for Active; 'I' for Inactive)
REMARK    1  A    between atoms: O_4  and  C_19
REMARK    2  A    between atoms: O_4  and  C_21
REMARK    3  A    between atoms: N_6  and  C_13
REMARK    4  A    between atoms: C_10  and  C_11
REMARK    5  A    between atoms: C_10  and  C_12
REMARK    6  A    between atoms: C_11  and  C_13
REMARK    7  A    between atoms: C_12  and  C_14
REMARK    8  A    between atoms: C_21  and  C_23
REMARK    9  A    between atoms: C_24  and  C_28
REMARK   10  A    between atoms: C_25  and  C_31
REMARK   11  A    between atoms: C_27  and  C_34
REMARK                            x       y       z     vdW  Elec       q    Type
REMARK                         _______ _______ _______ _____ _____    ______ ____
ROOT
ATOM      1  C   UNL     1      11.776  30.220   8.698  0.00  0.00    +0.220 A 
ATOM      2  N   UNL     1      11.803  30.099  10.007  0.00  0.00    -0.211 NA
ATOM      3  C   UNL     1      11.109  31.202  10.435  0.00  0.00    +0.117 A 
ATOM      4  C   UNL     1      10.691  31.943   9.357  0.00  0.00    +0.224 A 
ATOM      5  O   UNL     1      11.118  31.314   8.227  0.00  0.00    -0.444 OA
ENDROOT
BRANCH   1   7
ATOM      6  C   UNL     1      13.568  28.701   8.017  0.00  0.00    +0.013 C 
ATOM      7  C   UNL     1      12.373  29.299   7.804  0.00  0.00    +0.068 C 
BRANCH   6  11
ATOM      8  C   UNL     1      15.375  25.867   5.394  0.00  0.00    +0.055 A 
ATOM      9  C   UNL     1      14.444  26.780   4.900  0.00  0.00    +0.013 A 
ATOM     10  C   UNL     1      13.854  27.708   5.758  0.00  0.00    +0.008 A 
ATOM     11  C   UNL     1      14.194  27.722   7.111  0.00  0.00    -0.025 A 
ATOM     12  C   UNL     1      15.125  26.809   7.605  0.00  0.00    +0.008 A 
ATOM     13  C   UNL     1      15.716  25.881   6.747  0.00  0.00    +0.013 A 
BRANCH   8  15
ATOM     14  F   UNL     1      15.811  23.579   4.853  0.00  0.00    -0.166 F 
ATOM     15  C   UNL     1      16.007  24.876   4.476  0.00  0.00    +0.417 C 
ATOM     16  F   UNL     1      15.530  24.963   3.200  0.00  0.00    -0.166 F 
ATOM     17  F   UNL     1      17.363  25.015   4.370  0.00  0.00    -0.166 F 
ENDBRANCH   8  15
ENDBRANCH   6  11
ENDBRANCH   1   7
BRANCH   3  18
ATOM     18  C   UNL     1      10.898  31.464  11.888  0.00  0.00    +0.287 C 
BRANCH  18  19
ATOM     19  O   UNL     1      12.132  31.598  12.589  0.00  0.00    -0.486 OA
BRANCH  19  20
ATOM     20  C   UNL     1      12.671  30.465  13.118  0.00  0.00    +0.121 A 
ATOM     21  C   UNL     1      14.036  30.212  12.981  0.00  0.00    +0.046 A 
ATOM     22  C   UNL     1      14.588  29.052  13.522  0.00  0.00    +0.007 A 
ATOM     23  C   UNL     1      13.776  28.144  14.201  0.00  0.00    -0.047 A 
ATOM     24  C   UNL     1      12.411  28.397  14.338  0.00  0.00    +0.007 A 
ATOM     25  C   UNL     1      11.859  29.558  13.798  0.00  0.00    +0.046 A 
BRANCH  23  26
ATOM     26  C   UNL     1      14.372  26.889  14.787  0.00  0.00    +0.035 C 
BRANCH  26  27
ATOM     27  C   UNL     1      14.153  26.750  16.298  0.00  0.00    +0.006 C 
BRANCH  27  28
ATOM     28  C   UNL     1      14.540  28.015  17.075  0.00  0.00    +0.024 C 
BRANCH  28  29
ATOM     29  C   UNL     1      15.284  27.711  18.378  0.00  0.00    +0.145 C 
BRANCH  29  30
ATOM     30  N   UNL     1      16.330  28.675  18.696  0.00  0.00    -0.252 N 
ATOM     31  C   UNL     1      16.242  30.033  18.685  0.00  0.00    +0.130 A 
ATOM     32  C   UNL     1      17.497  30.441  19.064  0.00  0.00    +0.156 A 
ATOM     33  N   UNL     1      18.286  29.347  19.288  0.00  0.00    -0.138 NA
ATOM     34  N   UNL     1      17.555  28.262  19.059  0.00  0.00    -0.066 NA
ENDBRANCH  29  30
ENDBRANCH  28  29
ENDBRANCH  27  28
ENDBRANCH  26  27
ENDBRANCH  23  26
ENDBRANCH  19  20
ENDBRANCH  18  19
ENDBRANCH   3  18
TORSDOF 11
ENDMDL
