MODEL 1
REMARK VINA RESULT:      -9.1      0.000      0.000
REMARK  Name = 156414
REMARK  8 active torsions:
REMARK  status: ('A' for Active; 'I' for Inactive)
REMARK    1  A    between atoms: O_4  and  C_17
REMARK    2  A    between atoms: O_4  and  C_18
REMARK    3  A    between atoms: N_6  and  C_11
REMARK    4  A    between atoms: N_7  and  C_19
REMARK    5  A    between atoms: N_8  and  C_25
REMARK    6  A    between atoms: C_11  and  C_14
REMARK    7  A    between atoms: C_14  and  C_17
REMARK    8  A    between atoms: C_27  and  C_32
REMARK                            x       y       z     vdW  Elec       q    Type
REMARK                         _______ _______ _______ _____ _____    ______ ____
ROOT
ATOM      1  N   UNL     1      14.342  24.620   4.394  0.00  0.00    -0.299 N 
ATOM      2  H   UNL     1      13.427  24.528   4.828  0.00  0.00    +0.154 HD
ATOM      3  C   UNL     1      15.384  24.779   5.342  0.00  0.00    +0.134 A 
ATOM      4  C   UNL     1      15.221  25.678   6.392  0.00  0.00    +0.042 A 
ATOM      5  C   UNL     1      14.059  26.450   6.563  0.00  0.00    +0.040 A 
ATOM      6  C   UNL     1      13.961  27.332   7.635  0.00  0.00    +0.077 A 
ATOM      7  C   UNL     1      15.018  27.443   8.531  0.00  0.00    +0.144 A 
ATOM      8  C   UNL     1      16.170  26.671   8.354  0.00  0.00    +0.076 A 
ATOM      9  C   UNL     1      16.296  25.782   7.290  0.00  0.00    +0.080 A 
ATOM     10  N   UNL     1      17.412  25.049   7.137  0.00  0.00    -0.235 NA
ATOM     11  C   UNL     1      17.447  24.212   6.080  0.00  0.00    +0.223 A 
ATOM     12  N   UNL     1      16.487  24.029   5.159  0.00  0.00    -0.220 NA
ENDROOT
BRANCH   1  18
ATOM     13 CL   UNL     1      12.653  21.524   0.680  0.00  0.00    -0.081 Cl
ATOM     14  C   UNL     1      13.590  22.860   1.229  0.00  0.00    +0.078 A 
ATOM     15  C   UNL     1      14.349  23.604   0.326  0.00  0.00    +0.142 A 
ATOM     16  C   UNL     1      15.106  24.685   0.776  0.00  0.00    +0.041 A 
ATOM     17  C   UNL     1      15.104  25.023   2.130  0.00  0.00    +0.026 A 
ATOM     18  C   UNL     1      14.344  24.280   3.033  0.00  0.00    +0.034 A 
ATOM     19  F   UNL     1      14.362  23.291  -0.978  0.00  0.00    -0.204 F 
ATOM     20  C   UNL     1      13.587  23.198   2.582  0.00  0.00    +0.046 A 
ENDBRANCH   1  18
BRANCH   6  21
ATOM     21  N   UNL     1      12.802  28.095   7.796  0.00  0.00    -0.279 N 
ATOM     22  H   UNL     1      12.113  27.690   8.429  0.00  0.00    +0.155 HD
ATOM     23  C   UNL     1      12.487  29.322   7.199  0.00  0.00    +0.241 C 
ATOM     24  O   UNL     1      13.179  29.964   6.417  0.00  0.00    -0.271 OA
BRANCH  23  25
ATOM     25  C   UNL     1      11.147  29.815   7.629  0.00  0.00    +0.060 C 
ATOM     26  C   UNL     1      10.700  31.010   7.230  0.00  0.00    +0.013 C 
ENDBRANCH  23  25
ENDBRANCH   6  21
BRANCH   7  27
ATOM     27  O   UNL     1      14.951  28.303   9.595  0.00  0.00    -0.490 OA
BRANCH  27  28
ATOM     28  C   UNL     1      15.756  27.991  10.724  0.00  0.00    +0.230 C 
BRANCH  28  29
ATOM     29  C   UNL     1      15.269  28.804  11.916  0.00  0.00    +0.056 C 
BRANCH  29  30
ATOM     30  C   UNL     1      14.677  30.140  11.478  0.00  0.00    +0.088 C 
BRANCH  30  31
ATOM     31  N   UNL     1      14.136  30.857  12.631  0.00  0.00    -0.298 NA
ATOM     32  C   UNL     1      12.668  30.806  12.634  0.00  0.00    +0.112 C 
ATOM     33  C   UNL     1      12.126  31.550  13.852  0.00  0.00    +0.175 C 
ATOM     34  O   UNL     1      12.647  30.980  15.054  0.00  0.00    -0.377 OA
ATOM     35  C   UNL     1      14.073  31.053  15.074  0.00  0.00    +0.175 C 
ATOM     36  C   UNL     1      14.661  30.299  13.885  0.00  0.00    +0.112 C 
ENDBRANCH  30  31
ENDBRANCH  29  30
ENDBRANCH  28  29
ENDBRANCH  27  28
ENDBRANCH   7  27
TORSDOF 8
ENDMDL
MODEL 2
REMARK VINA RESULT:      -8.9      2.379      2.934
REMARK  Name = 156414
REMARK  8 active torsions:
REMARK  status: ('A' for Active; 'I' for Inactive)
REMARK    1  A    between atoms: O_4  and  C_17
REMARK    2  A    between atoms: O_4  and  C_18
REMARK    3  A    between atoms: N_6  and  C_11
REMARK    4  A    between atoms: N_7  and  C_19
REMARK    5  A    between atoms: N_8  and  C_25
REMARK    6  A    between atoms: C_11  and  C_14
REMARK    7  A    between atoms: C_14  and  C_17
REMARK    8  A    between atoms: C_27  and  C_32
REMARK                            x       y       z     vdW  Elec       q    Type
REMARK                         _______ _______ _______ _____ _____    ______ ____
ROOT
ATOM      1  N   UNL     1      13.673  25.284   3.574  0.00  0.00    -0.299 N 
ATOM      2  H   UNL     1      12.741  25.685   3.633  0.00  0.00    +0.154 HD
ATOM      3  C   UNL     1      14.356  25.301   4.815  0.00  0.00    +0.134 A 
ATOM      4  C   UNL     1      14.345  26.460   5.586  0.00  0.00    +0.042 A 
ATOM      5  C   UNL     1      13.681  27.634   5.189  0.00  0.00    +0.040 A 
ATOM      6  C   UNL     1      13.709  28.759   6.007  0.00  0.00    +0.077 A 
ATOM      7  C   UNL     1      14.398  28.713   7.214  0.00  0.00    +0.144 A 
ATOM      8  C   UNL     1      15.056  27.542   7.601  0.00  0.00    +0.076 A 
ATOM      9  C   UNL     1      15.044  26.402   6.802  0.00  0.00    +0.080 A 
ATOM     10  N   UNL     1      15.684  25.285   7.192  0.00  0.00    -0.235 NA
ATOM     11  C   UNL     1      15.619  24.227   6.357  0.00  0.00    +0.223 A 
ATOM     12  N   UNL     1      14.985  24.165   5.175  0.00  0.00    -0.220 NA
ENDROOT
BRANCH   1  18
ATOM     13 CL   UNL     1      12.621  21.206   0.658  0.00  0.00    -0.081 Cl
ATOM     14  C   UNL     1      13.451  22.686   0.950  0.00  0.00    +0.078 A 
ATOM     15  C   UNL     1      14.344  23.190   0.003  0.00  0.00    +0.142 A 
ATOM     16  C   UNL     1      15.013  24.388   0.245  0.00  0.00    +0.041 A 
ATOM     17  C   UNL     1      14.790  25.086   1.433  0.00  0.00    +0.026 A 
ATOM     18  C   UNL     1      13.897  24.583   2.379  0.00  0.00    +0.034 A 
ATOM     19  F   UNL     1      14.569  22.531  -1.143  0.00  0.00    -0.204 F 
ATOM     20  C   UNL     1      13.228  23.383   2.137  0.00  0.00    +0.046 A 
ENDBRANCH   1  18
BRANCH   6  21
ATOM     21  N   UNL     1      13.046  29.921   5.604  0.00  0.00    -0.279 N 
ATOM     22  H   UNL     1      13.640  30.608   5.142  0.00  0.00    +0.155 HD
ATOM     23  C   UNL     1      11.691  30.239   5.760  0.00  0.00    +0.241 C 
ATOM     24  O   UNL     1      10.824  29.549   6.284  0.00  0.00    -0.271 OA
BRANCH  23  25
ATOM     25  C   UNL     1      11.373  31.582   5.193  0.00  0.00    +0.060 C 
ATOM     26  C   UNL     1      10.206  32.175   5.462  0.00  0.00    +0.013 C 
ENDBRANCH  23  25
ENDBRANCH   6  21
BRANCH   7  27
ATOM     27  O   UNL     1      14.444  29.806   8.040  0.00  0.00    -0.490 OA
BRANCH  27  28
ATOM     28  C   UNL     1      13.804  29.683   9.302  0.00  0.00    +0.230 C 
BRANCH  28  29
ATOM     29  C   UNL     1      12.415  30.302   9.211  0.00  0.00    +0.056 C 
BRANCH  29  30
ATOM     30  C   UNL     1      11.878  30.677  10.589  0.00  0.00    +0.088 C 
BRANCH  30  31
ATOM     31  N   UNL     1      10.626  31.420  10.461  0.00  0.00    -0.298 NA
ATOM     32  C   UNL     1      10.360  32.207  11.672  0.00  0.00    +0.112 C 
ATOM     33  C   UNL     1       9.055  32.982  11.510  0.00  0.00    +0.175 C 
ATOM     34  O   UNL     1       9.124  33.836  10.366  0.00  0.00    -0.377 OA
ATOM     35  C   UNL     1       9.351  33.076   9.179  0.00  0.00    +0.175 C 
ATOM     36  C   UNL     1      10.662  32.302   9.286  0.00  0.00    +0.112 C 
ENDBRANCH  30  31
ENDBRANCH  29  30
ENDBRANCH  28  29
ENDBRANCH  27  28
ENDBRANCH   7  27
TORSDOF 8
ENDMDL
MODEL 3
REMARK VINA RESULT:      -8.7      2.801      4.113
REMARK  Name = 156414
REMARK  8 active torsions:
REMARK  status: ('A' for Active; 'I' for Inactive)
REMARK    1  A    between atoms: O_4  and  C_17
REMARK    2  A    between atoms: O_4  and  C_18
REMARK    3  A    between atoms: N_6  and  C_11
REMARK    4  A    between atoms: N_7  and  C_19
REMARK    5  A    between atoms: N_8  and  C_25
REMARK    6  A    between atoms: C_11  and  C_14
REMARK    7  A    between atoms: C_14  and  C_17
REMARK    8  A    between atoms: C_27  and  C_32
REMARK                            x       y       z     vdW  Elec       q    Type
REMARK                         _______ _______ _______ _____ _____    ______ ____
ROOT
ATOM      1  N   UNL     1      14.899  26.566   7.459  0.00  0.00    -0.299 N 
ATOM      2  H   UNL     1      13.902  26.760   7.502  0.00  0.00    +0.154 HD
ATOM      3  C   UNL     1      15.522  26.612   8.730  0.00  0.00    +0.134 A 
ATOM      4  C   UNL     1      15.243  27.672   9.589  0.00  0.00    +0.042 A 
ATOM      5  C   UNL     1      14.362  28.714   9.255  0.00  0.00    +0.040 A 
ATOM      6  C   UNL     1      14.127  29.745  10.160  0.00  0.00    +0.077 A 
ATOM      7  C   UNL     1      14.770  29.735  11.392  0.00  0.00    +0.144 A 
ATOM      8  C   UNL     1      15.645  28.694  11.718  0.00  0.00    +0.076 A 
ATOM      9  C   UNL     1      15.898  27.651  10.831  0.00  0.00    +0.080 A 
ATOM     10  N   UNL     1      16.744  26.659  11.162  0.00  0.00    -0.235 NA
ATOM     11  C   UNL     1      16.930  25.689  10.244  0.00  0.00    +0.223 A 
ATOM     12  N   UNL     1      16.362  25.603   9.030  0.00  0.00    -0.220 NA
ENDROOT
BRANCH   1  18
ATOM     13 CL   UNL     1      13.597  24.981   2.765  0.00  0.00    -0.081 Cl
ATOM     14  C   UNL     1      14.764  25.269   3.997  0.00  0.00    +0.078 A 
ATOM     15  C   UNL     1      16.110  24.977   3.771  0.00  0.00    +0.142 A 
ATOM     16  C   UNL     1      17.052  25.213   4.772  0.00  0.00    +0.041 A 
ATOM     17  C   UNL     1      16.649  25.742   5.999  0.00  0.00    +0.026 A 
ATOM     18  C   UNL     1      15.304  26.034   6.224  0.00  0.00    +0.034 A 
ATOM     19  F   UNL     1      16.512  24.470   2.598  0.00  0.00    -0.204 F 
ATOM     20  C   UNL     1      14.362  25.798   5.223  0.00  0.00    +0.046 A 
ENDBRANCH   1  18
BRANCH   6  21
ATOM     21  N   UNL     1      13.250  30.776   9.818  0.00  0.00    -0.279 N 
ATOM     22  H   UNL     1      13.675  31.702   9.792  0.00  0.00    +0.155 HD
ATOM     23  C   UNL     1      11.886  30.684   9.513  0.00  0.00    +0.241 C 
ATOM     24  O   UNL     1      11.200  29.668   9.489  0.00  0.00    -0.271 OA
BRANCH  23  25
ATOM     25  C   UNL     1      11.301  32.020   9.199  0.00  0.00    +0.060 C 
ATOM     26  C   UNL     1      10.040  32.127   8.770  0.00  0.00    +0.013 C 
ENDBRANCH  23  25
ENDBRANCH   6  21
BRANCH   7  27
ATOM     27  O   UNL     1      14.560  30.736  12.305  0.00  0.00    -0.490 OA
BRANCH  27  28
ATOM     28  C   UNL     1      13.647  30.462  13.358  0.00  0.00    +0.230 C 
BRANCH  28  29
ATOM     29  C   UNL     1      14.392  30.530  14.685  0.00  0.00    +0.056 C 
BRANCH  29  30
ATOM     30  C   UNL     1      13.663  29.754  15.777  0.00  0.00    +0.088 C 
BRANCH  30  31
ATOM     31  N   UNL     1      14.208  28.403  15.888  0.00  0.00    -0.298 NA
ATOM     32  C   UNL     1      14.591  28.107  17.276  0.00  0.00    +0.112 C 
ATOM     33  C   UNL     1      15.145  26.688  17.369  0.00  0.00    +0.175 C 
ATOM     34  O   UNL     1      14.176  25.745  16.907  0.00  0.00    -0.377 OA
ATOM     35  C   UNL     1      13.822  26.006  15.549  0.00  0.00    +0.175 C 
ATOM     36  C   UNL     1      13.237  27.408  15.412  0.00  0.00    +0.112 C 
ENDBRANCH  30  31
ENDBRANCH  29  30
ENDBRANCH  28  29
ENDBRANCH  27  28
ENDBRANCH   7  27
TORSDOF 8
ENDMDL
MODEL 4
REMARK VINA RESULT:      -8.4      2.709      4.143
REMARK  Name = 156414
REMARK  8 active torsions:
REMARK  status: ('A' for Active; 'I' for Inactive)
REMARK    1  A    between atoms: O_4  and  C_17
REMARK    2  A    between atoms: O_4  and  C_18
REMARK    3  A    between atoms: N_6  and  C_11
REMARK    4  A    between atoms: N_7  and  C_19
REMARK    5  A    between atoms: N_8  and  C_25
REMARK    6  A    between atoms: C_11  and  C_14
REMARK    7  A    between atoms: C_14  and  C_17
REMARK    8  A    between atoms: C_27  and  C_32
REMARK                            x       y       z     vdW  Elec       q    Type
REMARK                         _______ _______ _______ _____ _____    ______ ____
ROOT
ATOM      1  N   UNL     1      14.854  26.625   7.529  0.00  0.00    -0.299 N 
ATOM      2  H   UNL     1      13.857  26.823   7.548  0.00  0.00    +0.154 HD
ATOM      3  C   UNL     1      15.452  26.701   8.811  0.00  0.00    +0.134 A 
ATOM      4  C   UNL     1      15.160  27.782   9.638  0.00  0.00    +0.042 A 
ATOM      5  C   UNL     1      14.289  28.818   9.261  0.00  0.00    +0.040 A 
ATOM      6  C   UNL     1      14.040  29.871  10.136  0.00  0.00    +0.077 A 
ATOM      7  C   UNL     1      14.658  29.889  11.381  0.00  0.00    +0.144 A 
ATOM      8  C   UNL     1      15.523  28.854  11.749  0.00  0.00    +0.076 A 
ATOM      9  C   UNL     1      15.791  27.789  10.893  0.00  0.00    +0.080 A 
ATOM     10  N   UNL     1      16.626  26.803  11.265  0.00  0.00    -0.235 NA
ATOM     11  C   UNL     1      16.827  25.811  10.374  0.00  0.00    +0.223 A 
ATOM     12  N   UNL     1      16.283  25.697   9.151  0.00  0.00    -0.220 NA
ENDROOT
BRANCH   1  18
ATOM     13 CL   UNL     1      13.623  24.819   2.896  0.00  0.00    -0.081 Cl
ATOM     14  C   UNL     1      14.776  25.196   4.118  0.00  0.00    +0.078 A 
ATOM     15  C   UNL     1      16.132  24.945   3.905  0.00  0.00    +0.142 A 
ATOM     16  C   UNL     1      17.062  25.252   4.898  0.00  0.00    +0.041 A 
ATOM     17  C   UNL     1      16.637  25.811   6.104  0.00  0.00    +0.026 A 
ATOM     18  C   UNL     1      15.282  26.063   6.316  0.00  0.00    +0.034 A 
ATOM     19  F   UNL     1      16.556  24.408   2.752  0.00  0.00    -0.204 F 
ATOM     20  C   UNL     1      14.351  25.755   5.323  0.00  0.00    +0.046 A 
ENDBRANCH   1  18
BRANCH   6  21
ATOM     21  N   UNL     1      13.172  30.897   9.752  0.00  0.00    -0.279 N 
ATOM     22  H   UNL     1      13.630  31.786   9.557  0.00  0.00    +0.155 HD
ATOM     23  C   UNL     1      11.781  30.841   9.609  0.00  0.00    +0.241 C 
ATOM     24  O   UNL     1      11.055  29.870   9.794  0.00  0.00    -0.271 OA
BRANCH  23  25
ATOM     25  C   UNL     1      11.219  32.155   9.180  0.00  0.00    +0.060 C 
ATOM     26  C   UNL     1      10.129  32.210   8.409  0.00  0.00    +0.013 C 
ENDBRANCH  23  25
ENDBRANCH   6  21
BRANCH   7  27
ATOM     27  O   UNL     1      14.433  30.913  12.265  0.00  0.00    -0.490 OA
BRANCH  27  28
ATOM     28  C   UNL     1      13.777  30.579  13.479  0.00  0.00    +0.230 C 
BRANCH  28  29
ATOM     29  C   UNL     1      12.276  30.765  13.295  0.00  0.00    +0.056 C 
BRANCH  29  30
ATOM     30  C   UNL     1      11.854  32.208  13.559  0.00  0.00    +0.088 C 
BRANCH  30  31
ATOM     31  N   UNL     1      10.774  32.594  12.654  0.00  0.00    -0.298 NA
ATOM     32  C   UNL     1       9.658  31.643  12.739  0.00  0.00    +0.112 C 
ATOM     33  C   UNL     1       8.538  32.073  11.795  0.00  0.00    +0.175 C 
ATOM     34  O   UNL     1       8.095  33.392  12.118  0.00  0.00    -0.377 OA
ATOM     35  C   UNL     1       9.167  34.329  12.007  0.00  0.00    +0.175 C 
ATOM     36  C   UNL     1      10.302  33.952  12.955  0.00  0.00    +0.112 C 
ENDBRANCH  30  31
ENDBRANCH  29  30
ENDBRANCH  28  29
ENDBRANCH  27  28
ENDBRANCH   7  27
TORSDOF 8
ENDMDL
MODEL 5
REMARK VINA RESULT:      -8.2      3.428      6.992
REMARK  Name = 156414
REMARK  8 active torsions:
REMARK  status: ('A' for Active; 'I' for Inactive)
REMARK    1  A    between atoms: O_4  and  C_17
REMARK    2  A    between atoms: O_4  and  C_18
REMARK    3  A    between atoms: N_6  and  C_11
REMARK    4  A    between atoms: N_7  and  C_19
REMARK    5  A    between atoms: N_8  and  C_25
REMARK    6  A    between atoms: C_11  and  C_14
REMARK    7  A    between atoms: C_14  and  C_17
REMARK    8  A    between atoms: C_27  and  C_32
REMARK                            x       y       z     vdW  Elec       q    Type
REMARK                         _______ _______ _______ _____ _____    ______ ____
ROOT
ATOM      1  N   UNL     1      14.769  28.230   7.533  0.00  0.00    -0.299 N 
ATOM      2  H   UNL     1      15.333  28.956   7.967  0.00  0.00    +0.154 HD
ATOM      3  C   UNL     1      13.490  28.693   7.137  0.00  0.00    +0.134 A 
ATOM      4  C   UNL     1      12.740  29.467   8.018  0.00  0.00    +0.042 A 
ATOM      5  C   UNL     1      13.193  29.817   9.302  0.00  0.00    +0.040 A 
ATOM      6  C   UNL     1      12.393  30.594  10.134  0.00  0.00    +0.077 A 
ATOM      7  C   UNL     1      11.146  31.017   9.688  0.00  0.00    +0.144 A 
ATOM      8  C   UNL     1      10.703  30.665   8.409  0.00  0.00    +0.076 A 
ATOM      9  C   UNL     1      11.482  29.889   7.556  0.00  0.00    +0.080 A 
ATOM     10  N   UNL     1      11.039  29.559   6.330  0.00  0.00    -0.235 NA
ATOM     11  C   UNL     1      11.860  28.806   5.570  0.00  0.00    +0.223 A 
ATOM     12  N   UNL     1      13.076  28.346   5.903  0.00  0.00    -0.220 NA
ENDROOT
BRANCH   1  18
ATOM     13 CL   UNL     1      16.528  25.104   3.877  0.00  0.00    -0.081 Cl
ATOM     14  C   UNL     1      16.371  25.567   5.527  0.00  0.00    +0.078 A 
ATOM     15  C   UNL     1      16.976  24.808   6.531  0.00  0.00    +0.142 A 
ATOM     16  C   UNL     1      16.846  25.187   7.866  0.00  0.00    +0.041 A 
ATOM     17  C   UNL     1      16.111  26.326   8.200  0.00  0.00    +0.026 A 
ATOM     18  C   UNL     1      15.508  27.085   7.197  0.00  0.00    +0.034 A 
ATOM     19  F   UNL     1      17.684  23.712   6.225  0.00  0.00    -0.204 F 
ATOM     20  C   UNL     1      15.637  26.705   5.862  0.00  0.00    +0.046 A 
ENDBRANCH   1  18
BRANCH   6  21
ATOM     21  N   UNL     1      12.852  30.936  11.408  0.00  0.00    -0.279 N 
ATOM     22  H   UNL     1      12.209  31.514  11.949  0.00  0.00    +0.155 HD
ATOM     23  C   UNL     1      14.066  30.584  12.011  0.00  0.00    +0.241 C 
ATOM     24  O   UNL     1      14.962  29.901  11.529  0.00  0.00    -0.271 OA
BRANCH  23  25
ATOM     25  C   UNL     1      14.181  31.151  13.386  0.00  0.00    +0.060 C 
ATOM     26  C   UNL     1      13.088  31.397  14.115  0.00  0.00    +0.013 C 
ENDBRANCH  23  25
ENDBRANCH   6  21
BRANCH   7  27
ATOM     27  O   UNL     1      10.335  31.782  10.485  0.00  0.00    -0.490 OA
BRANCH  27  28
ATOM     28  C   UNL     1      10.222  33.158  10.152  0.00  0.00    +0.230 C 
BRANCH  28  29
ATOM     29  C   UNL     1       8.773  33.591  10.331  0.00  0.00    +0.056 C 
BRANCH  29  30
ATOM     30  C   UNL     1       7.843  32.840   9.382  0.00  0.00    +0.088 C 
BRANCH  30  31
ATOM     31  N   UNL     1       8.158  33.172   7.995  0.00  0.00    -0.298 NA
ATOM     32  C   UNL     1       7.720  32.102   7.089  0.00  0.00    +0.112 C 
ATOM     33  C   UNL     1       8.048  32.477   5.647  0.00  0.00    +0.175 C 
ATOM     34  O   UNL     1       7.419  33.711   5.299  0.00  0.00    -0.377 OA
ATOM     35  C   UNL     1       7.863  34.765   6.155  0.00  0.00    +0.175 C 
ATOM     36  C   UNL     1       7.532  34.445   7.609  0.00  0.00    +0.112 C 
ENDBRANCH  30  31
ENDBRANCH  29  30
ENDBRANCH  28  29
ENDBRANCH  27  28
ENDBRANCH   7  27
TORSDOF 8
ENDMDL
MODEL 6
REMARK VINA RESULT:      -7.8     10.321     13.964
REMARK  Name = 156414
REMARK  8 active torsions:
REMARK  status: ('A' for Active; 'I' for Inactive)
REMARK    1  A    between atoms: O_4  and  C_17
REMARK    2  A    between atoms: O_4  and  C_18
REMARK    3  A    between atoms: N_6  and  C_11
REMARK    4  A    between atoms: N_7  and  C_19
REMARK    5  A    between atoms: N_8  and  C_25
REMARK    6  A    between atoms: C_11  and  C_14
REMARK    7  A    between atoms: C_14  and  C_17
REMARK    8  A    between atoms: C_27  and  C_32
REMARK                            x       y       z     vdW  Elec       q    Type
REMARK                         _______ _______ _______ _____ _____    ______ ____
ROOT
ATOM      1  N   UNL     1      11.939  27.782  -1.965  0.00  0.00    -0.299 N 
ATOM      2  H   UNL     1      11.889  28.408  -1.165  0.00  0.00    +0.154 HD
ATOM      3  C   UNL     1      12.155  28.469  -3.185  0.00  0.00    +0.134 A 
ATOM      4  C   UNL     1      11.405  29.606  -3.471  0.00  0.00    +0.042 A 
ATOM      5  C   UNL     1      10.429  30.117  -2.597  0.00  0.00    +0.040 A 
ATOM      6  C   UNL     1       9.714  31.259  -2.944  0.00  0.00    +0.077 A 
ATOM      7  C   UNL     1       9.971  31.888  -4.157  0.00  0.00    +0.144 A 
ATOM      8  C   UNL     1      10.944  31.374  -5.020  0.00  0.00    +0.076 A 
ATOM      9  C   UNL     1      11.674  30.233  -4.699  0.00  0.00    +0.080 A 
ATOM     10  N   UNL     1      12.604  29.753  -5.543  0.00  0.00    -0.235 NA
ATOM     11  C   UNL     1      13.264  28.644  -5.151  0.00  0.00    +0.223 A 
ATOM     12  N   UNL     1      13.094  27.962  -4.007  0.00  0.00    -0.220 NA
ENDROOT
BRANCH   1  18
ATOM     13 CL   UNL     1      14.792  24.105   0.175  0.00  0.00    -0.081 Cl
ATOM     14  C   UNL     1      13.357  24.647  -0.608  0.00  0.00    +0.078 A 
ATOM     15  C   UNL     1      12.324  23.749  -0.881  0.00  0.00    +0.142 A 
ATOM     16  C   UNL     1      11.165  24.193  -1.515  0.00  0.00    +0.041 A 
ATOM     17  C   UNL     1      11.036  25.535  -1.876  0.00  0.00    +0.026 A 
ATOM     18  C   UNL     1      12.068  26.432  -1.602  0.00  0.00    +0.034 A 
ATOM     19  F   UNL     1      12.433  22.457  -0.540  0.00  0.00    -0.204 F 
ATOM     20  C   UNL     1      13.228  25.988  -0.968  0.00  0.00    +0.046 A 
ENDBRANCH   1  18
BRANCH   6  21
ATOM     21  N   UNL     1       8.746  31.758  -2.069  0.00  0.00    -0.279 N 
ATOM     22  H   UNL     1       9.047  32.562  -1.519  0.00  0.00    +0.155 HD
ATOM     23  C   UNL     1       7.442  31.291  -1.868  0.00  0.00    +0.241 C 
ATOM     24  O   UNL     1       6.899  30.345  -2.429  0.00  0.00    -0.271 OA
BRANCH  23  25
ATOM     25  C   UNL     1       6.721  32.098  -0.842  0.00  0.00    +0.060 C 
ATOM     26  C   UNL     1       7.283  32.351   0.345  0.00  0.00    +0.013 C 
ENDBRANCH  23  25
ENDBRANCH   6  21
BRANCH   7  27
ATOM     27  O   UNL     1       9.283  33.014  -4.526  0.00  0.00    -0.490 OA
BRANCH  27  28
ATOM     28  C   UNL     1      10.041  34.071  -5.098  0.00  0.00    +0.230 C 
BRANCH  28  29
ATOM     29  C   UNL     1       9.217  34.730  -6.196  0.00  0.00    +0.056 C 
BRANCH  29  30
ATOM     30  C   UNL     1       7.723  34.645  -5.902  0.00  0.00    +0.088 C 
BRANCH  30  31
ATOM     31  N   UNL     1       7.125  35.978  -5.925  0.00  0.00    -0.298 NA
ATOM     32  C   UNL     1       7.118  36.524  -7.289  0.00  0.00    +0.112 C 
ATOM     33  C   UNL     1       6.480  37.910  -7.289  0.00  0.00    +0.175 C 
ATOM     34  O   UNL     1       5.149  37.844  -6.772  0.00  0.00    -0.377 OA
ATOM     35  C   UNL     1       5.149  37.344  -5.435  0.00  0.00    +0.175 C 
ATOM     36  C   UNL     1       5.757  35.945  -5.389  0.00  0.00    +0.112 C 
ENDBRANCH  30  31
ENDBRANCH  29  30
ENDBRANCH  28  29
ENDBRANCH  27  28
ENDBRANCH   7  27
TORSDOF 8
ENDMDL
MODEL 7
REMARK VINA RESULT:      -7.8      3.736      6.419
REMARK  Name = 156414
REMARK  8 active torsions:
REMARK  status: ('A' for Active; 'I' for Inactive)
REMARK    1  A    between atoms: O_4  and  C_17
REMARK    2  A    between atoms: O_4  and  C_18
REMARK    3  A    between atoms: N_6  and  C_11
REMARK    4  A    between atoms: N_7  and  C_19
REMARK    5  A    between atoms: N_8  and  C_25
REMARK    6  A    between atoms: C_11  and  C_14
REMARK    7  A    between atoms: C_14  and  C_17
REMARK    8  A    between atoms: C_27  and  C_32
REMARK                            x       y       z     vdW  Elec       q    Type
REMARK                         _______ _______ _______ _____ _____    ______ ____
ROOT
ATOM      1  N   UNL     1      14.784  28.179   7.461  0.00  0.00    -0.299 N 
ATOM      2  H   UNL     1      15.332  28.950   7.833  0.00  0.00    +0.154 HD
ATOM      3  C   UNL     1      13.461  28.560   7.124  0.00  0.00    +0.134 A 
ATOM      4  C   UNL     1      12.723  29.330   8.020  0.00  0.00    +0.042 A 
ATOM      5  C   UNL     1      13.230  29.754   9.260  0.00  0.00    +0.040 A 
ATOM      6  C   UNL     1      12.439  30.522  10.109  0.00  0.00    +0.077 A 
ATOM      7  C   UNL     1      11.148  30.863   9.722  0.00  0.00    +0.144 A 
ATOM      8  C   UNL     1      10.651  30.438   8.487  0.00  0.00    +0.076 A 
ATOM      9  C   UNL     1      11.420  29.668   7.618  0.00  0.00    +0.080 A 
ATOM     10  N   UNL     1      10.925  29.268   6.434  0.00  0.00    -0.235 NA
ATOM     11  C   UNL     1      11.739  28.527   5.655  0.00  0.00    +0.223 A 
ATOM     12  N   UNL     1      12.996  28.143   5.931  0.00  0.00    -0.220 NA
ENDROOT
BRANCH   1  18
ATOM     13 CL   UNL     1      16.630  25.103   3.805  0.00  0.00    -0.081 Cl
ATOM     14  C   UNL     1      16.468  25.567   5.455  0.00  0.00    +0.078 A 
ATOM     15  C   UNL     1      17.107  24.836   6.457  0.00  0.00    +0.142 A 
ATOM     16  C   UNL     1      16.973  25.216   7.791  0.00  0.00    +0.041 A 
ATOM     17  C   UNL     1      16.199  26.328   8.126  0.00  0.00    +0.026 A 
ATOM     18  C   UNL     1      15.561  27.060   7.124  0.00  0.00    +0.034 A 
ATOM     19  F   UNL     1      17.853  23.765   6.151  0.00  0.00    -0.204 F 
ATOM     20  C   UNL     1      15.696  26.680   5.789  0.00  0.00    +0.046 A 
ENDBRANCH   1  18
BRANCH   6  21
ATOM     21  N   UNL     1      12.952  30.939  11.340  0.00  0.00    -0.279 N 
ATOM     22  H   UNL     1      12.454  31.721  11.763  0.00  0.00    +0.155 HD
ATOM     23  C   UNL     1      14.046  30.416  12.040  0.00  0.00    +0.241 C 
ATOM     24  O   UNL     1      14.766  29.483  11.700  0.00  0.00    -0.271 OA
BRANCH  23  25
ATOM     25  C   UNL     1      14.275  31.141  13.323  0.00  0.00    +0.060 C 
ATOM     26  C   UNL     1      14.290  30.481  14.485  0.00  0.00    +0.013 C 
ENDBRANCH  23  25
ENDBRANCH   6  21
BRANCH   7  27
ATOM     27  O   UNL     1      10.345  31.618  10.537  0.00  0.00    -0.490 OA
BRANCH  27  28
ATOM     28  C   UNL     1       9.923  32.877  10.034  0.00  0.00    +0.230 C 
BRANCH  28  29
ATOM     29  C   UNL     1       8.400  32.917  10.020  0.00  0.00    +0.056 C 
BRANCH  29  30
ATOM     30  C   UNL     1       7.835  33.206  11.407  0.00  0.00    +0.088 C 
BRANCH  30  31
ATOM     31  N   UNL     1       6.924  32.139  11.816  0.00  0.00    -0.298 NA
ATOM     32  C   UNL     1       6.505  31.339  10.658  0.00  0.00    +0.112 C 
ATOM     33  C   UNL     1       5.564  30.225  11.110  0.00  0.00    +0.175 C 
ATOM     34  O   UNL     1       6.206  29.398  12.082  0.00  0.00    -0.377 OA
ATOM     35  C   UNL     1       6.589  30.162  13.226  0.00  0.00    +0.175 C 
ATOM     36  C   UNL     1       7.552  31.275  12.824  0.00  0.00    +0.112 C 
ENDBRANCH  30  31
ENDBRANCH  29  30
ENDBRANCH  28  29
ENDBRANCH  27  28
ENDBRANCH   7  27
TORSDOF 8
ENDMDL
MODEL 8
REMARK VINA RESULT:      -7.8      4.248      7.367
REMARK  Name = 156414
REMARK  8 active torsions:
REMARK  status: ('A' for Active; 'I' for Inactive)
REMARK    1  A    between atoms: O_4  and  C_17
REMARK    2  A    between atoms: O_4  and  C_18
REMARK    3  A    between atoms: N_6  and  C_11
REMARK    4  A    between atoms: N_7  and  C_19
REMARK    5  A    between atoms: N_8  and  C_25
REMARK    6  A    between atoms: C_11  and  C_14
REMARK    7  A    between atoms: C_14  and  C_17
REMARK    8  A    between atoms: C_27  and  C_32
REMARK                            x       y       z     vdW  Elec       q    Type
REMARK                         _______ _______ _______ _____ _____    ______ ____
ROOT
ATOM      1  N   UNL     1      13.627  28.696   7.363  0.00  0.00    -0.299 N 
ATOM      2  H   UNL     1      14.195  28.979   8.157  0.00  0.00    +0.154 HD
ATOM      3  C   UNL     1      12.702  29.694   6.967  0.00  0.00    +0.134 A 
ATOM      4  C   UNL     1      11.942  30.343   7.935  0.00  0.00    +0.042 A 
ATOM      5  C   UNL     1      12.045  30.055   9.307  0.00  0.00    +0.040 A 
ATOM      6  C   UNL     1      11.254  30.741  10.224  0.00  0.00    +0.077 A 
ATOM      7  C   UNL     1      10.364  31.709   9.773  0.00  0.00    +0.144 A 
ATOM      8  C   UNL     1      10.267  31.990   8.406  0.00  0.00    +0.076 A 
ATOM      9  C   UNL     1      11.046  31.319   7.467  0.00  0.00    +0.080 A 
ATOM     10  N   UNL     1      10.939  31.603   6.158  0.00  0.00    -0.235 NA
ATOM     11  C   UNL     1      11.732  30.905   5.319  0.00  0.00    +0.223 A 
ATOM     12  N   UNL     1      12.620  29.954   5.648  0.00  0.00    -0.220 NA
ENDROOT
BRANCH   1  18
ATOM     13 CL   UNL     1      17.409  25.285   6.812  0.00  0.00    -0.081 Cl
ATOM     14  C   UNL     1      15.853  25.900   6.408  0.00  0.00    +0.078 A 
ATOM     15  C   UNL     1      15.072  25.257   5.446  0.00  0.00    +0.142 A 
ATOM     16  C   UNL     1      13.812  25.759   5.122  0.00  0.00    +0.041 A 
ATOM     17  C   UNL     1      13.331  26.903   5.760  0.00  0.00    +0.026 A 
ATOM     18  C   UNL     1      14.111  27.545   6.722  0.00  0.00    +0.034 A 
ATOM     19  F   UNL     1      15.520  24.157   4.825  0.00  0.00    -0.204 F 
ATOM     20  C   UNL     1      15.372  27.043   7.045  0.00  0.00    +0.046 A 
ENDBRANCH   1  18
BRANCH   6  21
ATOM     21  N   UNL     1      11.364  30.447  11.585  0.00  0.00    -0.279 N 
ATOM     22  H   UNL     1      10.481  30.217  12.040  0.00  0.00    +0.155 HD
ATOM     23  C   UNL     1      12.520  30.433  12.374  0.00  0.00    +0.241 C 
ATOM     24  O   UNL     1      13.666  30.678  12.013  0.00  0.00    -0.271 OA
BRANCH  23  25
ATOM     25  C   UNL     1      12.217  30.069  13.788  0.00  0.00    +0.060 C 
ATOM     26  C   UNL     1      12.157  28.787  14.163  0.00  0.00    +0.013 C 
ENDBRANCH  23  25
ENDBRANCH   6  21
BRANCH   7  27
ATOM     27  O   UNL     1       9.571  32.401  10.651  0.00  0.00    -0.490 OA
BRANCH  27  28
ATOM     28  C   UNL     1      10.037  33.677  11.066  0.00  0.00    +0.230 C 
BRANCH  28  29
ATOM     29  C   UNL     1       9.067  34.741  10.567  0.00  0.00    +0.056 C 
BRANCH  29  30
ATOM     30  C   UNL     1       7.677  34.161  10.323  0.00  0.00    +0.088 C 
BRANCH  30  31
ATOM     31  N   UNL     1       7.045  34.823   9.185  0.00  0.00    -0.298 NA
ATOM     32  C   UNL     1       7.147  36.284   9.308  0.00  0.00    +0.112 C 
ATOM     33  C   UNL     1       6.491  36.952   8.103  0.00  0.00    +0.175 C 
ATOM     34  O   UNL     1       7.107  36.510   6.892  0.00  0.00    -0.377 OA
ATOM     35  C   UNL     1       6.985  35.094   6.749  0.00  0.00    +0.175 C 
ATOM     36  C   UNL     1       7.652  34.381   7.922  0.00  0.00    +0.112 C 
ENDBRANCH  30  31
ENDBRANCH  29  30
ENDBRANCH  28  29
ENDBRANCH  27  28
ENDBRANCH   7  27
TORSDOF 8
ENDMDL
MODEL 9
REMARK VINA RESULT:      -7.7      7.616     11.571
REMARK  Name = 156414
REMARK  8 active torsions:
REMARK  status: ('A' for Active; 'I' for Inactive)
REMARK    1  A    between atoms: O_4  and  C_17
REMARK    2  A    between atoms: O_4  and  C_18
REMARK    3  A    between atoms: N_6  and  C_11
REMARK    4  A    between atoms: N_7  and  C_19
REMARK    5  A    between atoms: N_8  and  C_25
REMARK    6  A    between atoms: C_11  and  C_14
REMARK    7  A    between atoms: C_14  and  C_17
REMARK    8  A    between atoms: C_27  and  C_32
REMARK                            x       y       z     vdW  Elec       q    Type
REMARK                         _______ _______ _______ _____ _____    ______ ____
ROOT
ATOM      1  N   UNL     1      13.957  24.963   1.481  0.00  0.00    -0.299 N 
ATOM      2  H   UNL     1      14.323  25.871   1.209  0.00  0.00    +0.154 HD
ATOM      3  C   UNL     1      13.312  24.289   0.415  0.00  0.00    +0.134 A 
ATOM      4  C   UNL     1      12.410  24.985  -0.386  0.00  0.00    +0.042 A 
ATOM      5  C   UNL     1      12.103  26.342  -0.188  0.00  0.00    +0.040 A 
ATOM      6  C   UNL     1      11.192  26.979  -1.025  0.00  0.00    +0.077 A 
ATOM      7  C   UNL     1      10.590  26.264  -2.055  0.00  0.00    +0.144 A 
ATOM      8  C   UNL     1      10.902  24.914  -2.246  0.00  0.00    +0.076 A 
ATOM      9  C   UNL     1      11.809  24.252  -1.423  0.00  0.00    +0.080 A 
ATOM     10  N   UNL     1      12.095  22.954  -1.622  0.00  0.00    -0.235 NA
ATOM     11  C   UNL     1      12.986  22.393  -0.778  0.00  0.00    +0.223 A 
ATOM     12  N   UNL     1      13.622  22.990   0.243  0.00  0.00    -0.220 NA
ENDROOT
BRANCH   1  18
ATOM     13 CL   UNL     1      17.730  25.008   4.946  0.00  0.00    -0.081 Cl
ATOM     14  C   UNL     1      16.178  24.497   4.403  0.00  0.00    +0.078 A 
ATOM     15  C   UNL     1      15.401  23.650   5.194  0.00  0.00    +0.142 A 
ATOM     16  C   UNL     1      14.145  23.240   4.749  0.00  0.00    +0.041 A 
ATOM     17  C   UNL     1      13.664  23.676   3.514  0.00  0.00    +0.026 A 
ATOM     18  C   UNL     1      14.441  24.524   2.724  0.00  0.00    +0.034 A 
ATOM     19  F   UNL     1      15.849  23.223   6.382  0.00  0.00    -0.204 F 
ATOM     20  C   UNL     1      15.697  24.934   3.168  0.00  0.00    +0.046 A 
ENDBRANCH   1  18
BRANCH   6  21
ATOM     21  N   UNL     1      10.892  28.328  -0.820  0.00  0.00    -0.279 N 
ATOM     22  H   UNL     1      10.355  28.518   0.025  0.00  0.00    +0.155 HD
ATOM     23  C   UNL     1      11.239  29.420  -1.624  0.00  0.00    +0.241 C 
ATOM     24  O   UNL     1      11.878  29.397  -2.670  0.00  0.00    -0.271 OA
BRANCH  23  25
ATOM     25  C   UNL     1      10.728  30.703  -1.058  0.00  0.00    +0.060 C 
ATOM     26  C   UNL     1       9.616  30.725  -0.317  0.00  0.00    +0.013 C 
ENDBRANCH  23  25
ENDBRANCH   6  21
BRANCH   7  27
ATOM     27  O   UNL     1       9.688  26.862  -2.895  0.00  0.00    -0.490 OA
BRANCH  27  28
ATOM     28  C   UNL     1       8.690  26.027  -3.465  0.00  0.00    +0.230 C 
BRANCH  28  29
ATOM     29  C   UNL     1       7.682  26.898  -4.204  0.00  0.00    +0.056 C 
BRANCH  29  30
ATOM     30  C   UNL     1       8.369  28.040  -4.948  0.00  0.00    +0.088 C 
BRANCH  30  31
ATOM     31  N   UNL     1       8.322  29.264  -4.152  0.00  0.00    -0.298 NA
ATOM     32  C   UNL     1       8.937  30.383  -4.880  0.00  0.00    +0.112 C 
ATOM     33  C   UNL     1       8.866  31.652  -4.035  0.00  0.00    +0.175 C 
ATOM     34  O   UNL     1       7.509  31.956  -3.709  0.00  0.00    -0.377 OA
ATOM     35  C   UNL     1       6.912  30.887  -2.974  0.00  0.00    +0.175 C 
ATOM     36  C   UNL     1       6.937  29.599  -3.793  0.00  0.00    +0.112 C 
ENDBRANCH  30  31
ENDBRANCH  29  30
ENDBRANCH  28  29
ENDBRANCH  27  28
ENDBRANCH   7  27
TORSDOF 8
ENDMDL
MODEL 10
REMARK VINA RESULT:      -7.6     10.299     14.289
REMARK  Name = 156414
REMARK  8 active torsions:
REMARK  status: ('A' for Active; 'I' for Inactive)
REMARK    1  A    between atoms: O_4  and  C_17
REMARK    2  A    between atoms: O_4  and  C_18
REMARK    3  A    between atoms: N_6  and  C_11
REMARK    4  A    between atoms: N_7  and  C_19
REMARK    5  A    between atoms: N_8  and  C_25
REMARK    6  A    between atoms: C_11  and  C_14
REMARK    7  A    between atoms: C_14  and  C_17
REMARK    8  A    between atoms: C_27  and  C_32
REMARK                            x       y       z     vdW  Elec       q    Type
REMARK                         _______ _______ _______ _____ _____    ______ ____
ROOT
ATOM      1  N   UNL     1      11.918  27.694  -1.832  0.00  0.00    -0.299 N 
ATOM      2  H   UNL     1      11.854  28.279  -1.003  0.00  0.00    +0.154 HD
ATOM      3  C   UNL     1      12.139  28.442  -3.015  0.00  0.00    +0.134 A 
ATOM      4  C   UNL     1      11.380  29.586  -3.251  0.00  0.00    +0.042 A 
ATOM      5  C   UNL     1      10.391  30.043  -2.364  0.00  0.00    +0.040 A 
ATOM      6  C   UNL     1       9.668  31.194  -2.660  0.00  0.00    +0.077 A 
ATOM      7  C   UNL     1       9.931  31.884  -3.838  0.00  0.00    +0.144 A 
ATOM      8  C   UNL     1      10.917  31.424  -4.716  0.00  0.00    +0.076 A 
ATOM      9  C   UNL     1      11.655  30.275  -4.444  0.00  0.00    +0.080 A 
ATOM     10  N   UNL     1      12.599  29.847  -5.301  0.00  0.00    -0.235 NA
ATOM     11  C   UNL     1      13.266  28.726  -4.957  0.00  0.00    +0.223 A 
ATOM     12  N   UNL     1      13.092  27.986  -3.850  0.00  0.00    -0.220 NA
ENDROOT
BRANCH   1  18
ATOM     13 CL   UNL     1      14.800  23.938   0.125  0.00  0.00    -0.081 Cl
ATOM     14  C   UNL     1      13.361  24.507  -0.629  0.00  0.00    +0.078 A 
ATOM     15  C   UNL     1      12.334  23.616  -0.945  0.00  0.00    +0.142 A 
ATOM     16  C   UNL     1      11.170  24.082  -1.556  0.00  0.00    +0.041 A 
ATOM     17  C   UNL     1      11.032  25.439  -1.851  0.00  0.00    +0.026 A 
ATOM     18  C   UNL     1      12.058  26.329  -1.534  0.00  0.00    +0.034 A 
ATOM     19  F   UNL     1      12.453  22.310  -0.667  0.00  0.00    -0.204 F 
ATOM     20  C   UNL     1      13.222  25.863  -0.924  0.00  0.00    +0.046 A 
ENDBRANCH   1  18
BRANCH   6  21
ATOM     21  N   UNL     1       8.687  31.640  -1.772  0.00  0.00    -0.279 N 
ATOM     22  H   UNL     1       9.030  32.256  -1.036  0.00  0.00    +0.155 HD
ATOM     23  C   UNL     1       7.319  31.342  -1.778  0.00  0.00    +0.241 C 
ATOM     24  O   UNL     1       6.719  30.628  -2.574  0.00  0.00    -0.271 OA
BRANCH  23  25
ATOM     25  C   UNL     1       6.604  32.017  -0.656  0.00  0.00    +0.060 C 
ATOM     26  C   UNL     1       7.276  32.452   0.415  0.00  0.00    +0.013 C 
ENDBRANCH  23  25
ENDBRANCH   6  21
BRANCH   7  27
ATOM     27  O   UNL     1       9.235  33.021  -4.158  0.00  0.00    -0.490 OA
BRANCH  27  28
ATOM     28  C   UNL     1       8.275  32.912  -5.200  0.00  0.00    +0.230 C 
BRANCH  28  29
ATOM     29  C   UNL     1       8.264  34.210  -5.997  0.00  0.00    +0.056 C 
BRANCH  29  30
ATOM     30  C   UNL     1       9.680  34.690  -6.303  0.00  0.00    +0.088 C 
BRANCH  30  31
ATOM     31  N   UNL     1       9.693  35.477  -7.534  0.00  0.00    -0.298 NA
ATOM     32  C   UNL     1      10.929  35.240  -8.291  0.00  0.00    +0.112 C 
ATOM     33  C   UNL     1      10.915  36.063  -9.577  0.00  0.00    +0.175 C 
ATOM     34  O   UNL     1       9.774  35.728 -10.368  0.00  0.00    -0.377 OA
ATOM     35  C   UNL     1       8.566  35.985  -9.651  0.00  0.00    +0.175 C 
ATOM     36  C   UNL     1       8.525  35.162  -8.367  0.00  0.00    +0.112 C 
ENDBRANCH  30  31
ENDBRANCH  29  30
ENDBRANCH  28  29
ENDBRANCH  27  28
ENDBRANCH   7  27
TORSDOF 8
ENDMDL
MODEL 11
REMARK VINA RESULT:      -7.6      4.201      6.937
REMARK  Name = 156414
REMARK  8 active torsions:
REMARK  status: ('A' for Active; 'I' for Inactive)
REMARK    1  A    between atoms: O_4  and  C_17
REMARK    2  A    between atoms: O_4  and  C_18
REMARK    3  A    between atoms: N_6  and  C_11
REMARK    4  A    between atoms: N_7  and  C_19
REMARK    5  A    between atoms: N_8  and  C_25
REMARK    6  A    between atoms: C_11  and  C_14
REMARK    7  A    between atoms: C_14  and  C_17
REMARK    8  A    between atoms: C_27  and  C_32
REMARK                            x       y       z     vdW  Elec       q    Type
REMARK                         _______ _______ _______ _____ _____    ______ ____
ROOT
ATOM      1  N   UNL     1      14.125  28.299   7.279  0.00  0.00    -0.299 N 
ATOM      2  H   UNL     1      14.818  28.788   7.839  0.00  0.00    +0.154 HD
ATOM      3  C   UNL     1      13.008  29.109   6.956  0.00  0.00    +0.134 A 
ATOM      4  C   UNL     1      12.412  29.877   7.953  0.00  0.00    +0.042 A 
ATOM      5  C   UNL     1      12.867  29.891   9.282  0.00  0.00    +0.040 A 
ATOM      6  C   UNL     1      12.225  30.682  10.230  0.00  0.00    +0.077 A 
ATOM      7  C   UNL     1      11.133  31.455   9.851  0.00  0.00    +0.144 A 
ATOM      8  C   UNL     1      10.686  31.437   8.527  0.00  0.00    +0.076 A 
ATOM      9  C   UNL     1      11.310  30.654   7.558  0.00  0.00    +0.080 A 
ATOM     10  N   UNL     1      10.866  30.650   6.289  0.00  0.00    -0.235 NA
ATOM     11  C   UNL     1      11.530  29.864   5.417  0.00  0.00    +0.223 A 
ATOM     12  N   UNL     1      12.590  29.081   5.677  0.00  0.00    -0.220 NA
ENDROOT
BRANCH   1  18
ATOM     13 CL   UNL     1      13.504  24.465   3.939  0.00  0.00    -0.081 Cl
ATOM     14  C   UNL     1      14.369  25.244   5.207  0.00  0.00    +0.078 A 
ATOM     15  C   UNL     1      15.537  24.673   5.714  0.00  0.00    +0.142 A 
ATOM     16  C   UNL     1      16.234  25.308   6.741  0.00  0.00    +0.041 A 
ATOM     17  C   UNL     1      15.765  26.514   7.262  0.00  0.00    +0.026 A 
ATOM     18  C   UNL     1      14.598  27.085   6.755  0.00  0.00    +0.034 A 
ATOM     19  F   UNL     1      16.001  23.515   5.224  0.00  0.00    -0.204 F 
ATOM     20  C   UNL     1      13.900  26.450   5.728  0.00  0.00    +0.046 A 
ENDBRANCH   1  18
BRANCH   6  21
ATOM     21  N   UNL     1      12.684  30.687  11.549  0.00  0.00    -0.279 N 
ATOM     22  H   UNL     1      11.977  30.927  12.242  0.00  0.00    +0.155 HD
ATOM     23  C   UNL     1      13.975  30.408  12.014  0.00  0.00    +0.241 C 
ATOM     24  O   UNL     1      14.954  30.102  11.342  0.00  0.00    -0.271 OA
BRANCH  23  25
ATOM     25  C   UNL     1      14.061  30.523  13.499  0.00  0.00    +0.060 C 
ATOM     26  C   UNL     1      14.083  31.722  14.089  0.00  0.00    +0.013 C 
ENDBRANCH  23  25
ENDBRANCH   6  21
BRANCH   7  27
ATOM     27  O   UNL     1      10.479  32.243  10.762  0.00  0.00    -0.490 OA
BRANCH  27  28
ATOM     28  C   UNL     1      10.325  33.616  10.428  0.00  0.00    +0.230 C 
BRANCH  28  29
ATOM     29  C   UNL     1       8.845  33.972  10.482  0.00  0.00    +0.056 C 
BRANCH  29  30
ATOM     30  C   UNL     1       8.596  35.201  11.352  0.00  0.00    +0.088 C 
BRANCH  30  31
ATOM     31  N   UNL     1       7.924  36.242  10.578  0.00  0.00    -0.298 NA
ATOM     32  C   UNL     1       8.800  37.407  10.399  0.00  0.00    +0.112 C 
ATOM     33  C   UNL     1       8.081  38.475   9.579  0.00  0.00    +0.175 C 
ATOM     34  O   UNL     1       7.689  37.947   8.311  0.00  0.00    -0.377 OA
ATOM     35  C   UNL     1       6.811  36.833   8.475  0.00  0.00    +0.175 C 
ATOM     36  C   UNL     1       7.499  35.726   9.269  0.00  0.00    +0.112 C 
ENDBRANCH  30  31
ENDBRANCH  29  30
ENDBRANCH  28  29
ENDBRANCH  27  28
ENDBRANCH   7  27
TORSDOF 8
ENDMDL
MODEL 12
REMARK VINA RESULT:      -7.6      3.369      5.903
REMARK  Name = 156414
REMARK  8 active torsions:
REMARK  status: ('A' for Active; 'I' for Inactive)
REMARK    1  A    between atoms: O_4  and  C_17
REMARK    2  A    between atoms: O_4  and  C_18
REMARK    3  A    between atoms: N_6  and  C_11
REMARK    4  A    between atoms: N_7  and  C_19
REMARK    5  A    between atoms: N_8  and  C_25
REMARK    6  A    between atoms: C_11  and  C_14
REMARK    7  A    between atoms: C_14  and  C_17
REMARK    8  A    between atoms: C_27  and  C_32
REMARK                            x       y       z     vdW  Elec       q    Type
REMARK                         _______ _______ _______ _____ _____    ______ ____
ROOT
ATOM      1  N   UNL     1      14.783  28.194   7.458  0.00  0.00    -0.299 N 
ATOM      2  H   UNL     1      15.344  28.959   7.821  0.00  0.00    +0.154 HD
ATOM      3  C   UNL     1      13.459  28.587   7.142  0.00  0.00    +0.134 A 
ATOM      4  C   UNL     1      12.742  29.363   8.049  0.00  0.00    +0.042 A 
ATOM      5  C   UNL     1      13.272  29.782   9.281  0.00  0.00    +0.040 A 
ATOM      6  C   UNL     1      12.501  30.556  10.143  0.00  0.00    +0.077 A 
ATOM      7  C   UNL     1      11.207  30.909   9.776  0.00  0.00    +0.144 A 
ATOM      8  C   UNL     1      10.687  30.489   8.549  0.00  0.00    +0.076 A 
ATOM      9  C   UNL     1      11.436  29.713   7.668  0.00  0.00    +0.080 A 
ATOM     10  N   UNL     1      10.919  29.318   6.491  0.00  0.00    -0.235 NA
ATOM     11  C   UNL     1      11.714  28.570   5.699  0.00  0.00    +0.223 A 
ATOM     12  N   UNL     1      12.972  28.175   5.956  0.00  0.00    -0.220 NA
ENDROOT
BRANCH   1  18
ATOM     13 CL   UNL     1      16.549  25.107   3.772  0.00  0.00    -0.081 Cl
ATOM     14  C   UNL     1      16.414  25.569   5.424  0.00  0.00    +0.078 A 
ATOM     15  C   UNL     1      17.060  24.830   6.416  0.00  0.00    +0.142 A 
ATOM     16  C   UNL     1      16.948  25.209   7.753  0.00  0.00    +0.041 A 
ATOM     17  C   UNL     1      16.190  26.328   8.100  0.00  0.00    +0.026 A 
ATOM     18  C   UNL     1      15.545  27.068   7.109  0.00  0.00    +0.034 A 
ATOM     19  F   UNL     1      17.792  23.753   6.098  0.00  0.00    -0.204 F 
ATOM     20  C   UNL     1      15.657  26.688   5.771  0.00  0.00    +0.046 A 
ENDBRANCH   1  18
BRANCH   6  21
ATOM     21  N   UNL     1      13.037  30.967  11.366  0.00  0.00    -0.279 N 
ATOM     22  H   UNL     1      12.619  31.815  11.747  0.00  0.00    +0.155 HD
ATOM     23  C   UNL     1      14.057  30.361  12.108  0.00  0.00    +0.241 C 
ATOM     24  O   UNL     1      14.678  29.343  11.821  0.00  0.00    -0.271 OA
BRANCH  23  25
ATOM     25  C   UNL     1      14.343  31.111  13.365  0.00  0.00    +0.060 C 
ATOM     26  C   UNL     1      14.253  30.507  14.554  0.00  0.00    +0.013 C 
ENDBRANCH  23  25
ENDBRANCH   6  21
BRANCH   7  27
ATOM     27  O   UNL     1      10.424  31.670  10.604  0.00  0.00    -0.490 OA
BRANCH  27  28
ATOM     28  C   UNL     1       9.998  32.930  10.105  0.00  0.00    +0.230 C 
BRANCH  28  29
ATOM     29  C   UNL     1       9.473  33.767  11.264  0.00  0.00    +0.056 C 
BRANCH  29  30
ATOM     30  C   UNL     1      10.447  33.769  12.439  0.00  0.00    +0.088 C 
BRANCH  30  31
ATOM     31  N   UNL     1       9.868  33.061  13.578  0.00  0.00    -0.298 NA
ATOM     32  C   UNL     1      10.900  32.312  14.307  0.00  0.00    +0.112 C 
ATOM     33  C   UNL     1      10.274  31.591  15.498  0.00  0.00    +0.175 C 
ATOM     34  O   UNL     1       9.635  32.530  16.365  0.00  0.00    -0.377 OA
ATOM     35  C   UNL     1       8.608  33.241  15.674  0.00  0.00    +0.175 C 
ATOM     36  C   UNL     1       9.193  34.000  14.486  0.00  0.00    +0.112 C 
ENDBRANCH  30  31
ENDBRANCH  29  30
ENDBRANCH  28  29
ENDBRANCH  27  28
ENDBRANCH   7  27
TORSDOF 8
ENDMDL
MODEL 13
REMARK VINA RESULT:      -7.5      1.796      2.651
REMARK  Name = 156414
REMARK  8 active torsions:
REMARK  status: ('A' for Active; 'I' for Inactive)
REMARK    1  A    between atoms: O_4  and  C_17
REMARK    2  A    between atoms: O_4  and  C_18
REMARK    3  A    between atoms: N_6  and  C_11
REMARK    4  A    between atoms: N_7  and  C_19
REMARK    5  A    between atoms: N_8  and  C_25
REMARK    6  A    between atoms: C_11  and  C_14
REMARK    7  A    between atoms: C_14  and  C_17
REMARK    8  A    between atoms: C_27  and  C_32
REMARK                            x       y       z     vdW  Elec       q    Type
REMARK                         _______ _______ _______ _____ _____    ______ ____
ROOT
ATOM      1  N   UNL     1      14.321  26.285   5.558  0.00  0.00    -0.299 N 
ATOM      2  H   UNL     1      13.308  26.367   5.579  0.00  0.00    +0.154 HD
ATOM      3  C   UNL     1      14.910  26.441   6.837  0.00  0.00    +0.134 A 
ATOM      4  C   UNL     1      14.498  27.489   7.656  0.00  0.00    +0.042 A 
ATOM      5  C   UNL     1      13.512  28.415   7.272  0.00  0.00    +0.040 A 
ATOM      6  C   UNL     1      13.146  29.440   8.139  0.00  0.00    +0.077 A 
ATOM      7  C   UNL     1      13.762  29.541   9.381  0.00  0.00    +0.144 A 
ATOM      8  C   UNL     1      14.741  28.616   9.755  0.00  0.00    +0.076 A 
ATOM      9  C   UNL     1      15.127  27.581   8.908  0.00  0.00    +0.080 A 
ATOM     10  N   UNL     1      16.072  26.701   9.285  0.00  0.00    -0.235 NA
ATOM     11  C   UNL     1      16.383  25.730   8.403  0.00  0.00    +0.223 A 
ATOM     12  N   UNL     1      15.852  25.543   7.184  0.00  0.00    -0.220 NA
ENDROOT
BRANCH   1  18
ATOM     13 CL   UNL     1      13.311  24.602   0.826  0.00  0.00    -0.081 Cl
ATOM     14  C   UNL     1      14.406  24.956   2.107  0.00  0.00    +0.078 A 
ATOM     15  C   UNL     1      15.774  24.727   1.945  0.00  0.00    +0.142 A 
ATOM     16  C   UNL     1      16.656  25.016   2.985  0.00  0.00    +0.041 A 
ATOM     17  C   UNL     1      16.173  25.534   4.188  0.00  0.00    +0.026 A 
ATOM     18  C   UNL     1      14.807  25.764   4.349  0.00  0.00    +0.034 A 
ATOM     19  F   UNL     1      16.253  24.230   0.796  0.00  0.00    -0.204 F 
ATOM     20  C   UNL     1      13.924  25.474   3.308  0.00  0.00    +0.046 A 
ENDBRANCH   1  18
BRANCH   6  21
ATOM     21  N   UNL     1      12.166  30.355   7.749  0.00  0.00    -0.279 N 
ATOM     22  H   UNL     1      11.677  30.807   8.521  0.00  0.00    +0.155 HD
ATOM     23  C   UNL     1      11.789  30.713   6.449  0.00  0.00    +0.241 C 
ATOM     24  O   UNL     1      12.254  30.286   5.398  0.00  0.00    -0.271 OA
BRANCH  23  25
ATOM     25  C   UNL     1      10.696  31.730   6.453  0.00  0.00    +0.060 C 
ATOM     26  C   UNL     1      10.236  32.240   5.307  0.00  0.00    +0.013 C 
ENDBRANCH  23  25
ENDBRANCH   6  21
BRANCH   7  27
ATOM     27  O   UNL     1      13.424  30.541  10.256  0.00  0.00    -0.490 OA
BRANCH  27  28
ATOM     28  C   UNL     1      12.974  30.141  11.543  0.00  0.00    +0.230 C 
BRANCH  28  29
ATOM     29  C   UNL     1      11.766  30.987  11.927  0.00  0.00    +0.056 C 
BRANCH  29  30
ATOM     30  C   UNL     1      11.746  31.288  13.422  0.00  0.00    +0.088 C 
BRANCH  30  31
ATOM     31  N   UNL     1      12.771  30.508  14.110  0.00  0.00    -0.298 NA
ATOM     32  C   UNL     1      13.550  31.357  15.022  0.00  0.00    +0.112 C 
ATOM     33  C   UNL     1      14.605  30.518  15.737  0.00  0.00    +0.175 C 
ATOM     34  O   UNL     1      13.986  29.451  16.458  0.00  0.00    -0.377 OA
ATOM     35  C   UNL     1      13.253  28.602  15.575  0.00  0.00    +0.175 C 
ATOM     36  C   UNL     1      12.166  29.394  14.855  0.00  0.00    +0.112 C 
ENDBRANCH  30  31
ENDBRANCH  29  30
ENDBRANCH  28  29
ENDBRANCH  27  28
ENDBRANCH   7  27
TORSDOF 8
ENDMDL
MODEL 14
REMARK VINA RESULT:      -7.4      5.620      9.244
REMARK  Name = 156414
REMARK  8 active torsions:
REMARK  status: ('A' for Active; 'I' for Inactive)
REMARK    1  A    between atoms: O_4  and  C_17
REMARK    2  A    between atoms: O_4  and  C_18
REMARK    3  A    between atoms: N_6  and  C_11
REMARK    4  A    between atoms: N_7  and  C_19
REMARK    5  A    between atoms: N_8  and  C_25
REMARK    6  A    between atoms: C_11  and  C_14
REMARK    7  A    between atoms: C_14  and  C_17
REMARK    8  A    between atoms: C_27  and  C_32
REMARK                            x       y       z     vdW  Elec       q    Type
REMARK                         _______ _______ _______ _____ _____    ______ ____
ROOT
ATOM      1  N   UNL     1      11.111  29.209   6.982  0.00  0.00    -0.299 N 
ATOM      2  H   UNL     1      10.216  28.793   6.738  0.00  0.00    +0.154 HD
ATOM      3  C   UNL     1      11.033  30.047   8.122  0.00  0.00    +0.134 A 
ATOM      4  C   UNL     1       9.994  30.969   8.222  0.00  0.00    +0.042 A 
ATOM      5  C   UNL     1       9.004  31.114   7.235  0.00  0.00    +0.040 A 
ATOM      6  C   UNL     1       7.993  32.055   7.397  0.00  0.00    +0.077 A 
ATOM      7  C   UNL     1       7.971  32.849   8.538  0.00  0.00    +0.144 A 
ATOM      8  C   UNL     1       8.959  32.699   9.516  0.00  0.00    +0.076 A 
ATOM      9  C   UNL     1       9.983  31.765   9.379  0.00  0.00    +0.080 A 
ATOM     10  N   UNL     1      10.925  31.636  10.330  0.00  0.00    -0.235 NA
ATOM     11  C   UNL     1      11.878  30.706  10.116  0.00  0.00    +0.223 A 
ATOM     12  N   UNL     1      11.992  29.891   9.055  0.00  0.00    -0.220 NA
ENDROOT
BRANCH   1  18
ATOM     13 CL   UNL     1      12.948  25.220   4.346  0.00  0.00    -0.081 Cl
ATOM     14  C   UNL     1      13.130  26.774   5.064  0.00  0.00    +0.078 A 
ATOM     15  C   UNL     1      14.349  27.447   4.983  0.00  0.00    +0.142 A 
ATOM     16  C   UNL     1      14.491  28.705   5.567  0.00  0.00    +0.041 A 
ATOM     17  C   UNL     1      13.414  29.292   6.232  0.00  0.00    +0.026 A 
ATOM     18  C   UNL     1      12.195  28.619   6.312  0.00  0.00    +0.034 A 
ATOM     19  F   UNL     1      15.393  26.896   4.347  0.00  0.00    -0.204 F 
ATOM     20  C   UNL     1      12.053  27.360   5.729  0.00  0.00    +0.046 A 
ENDBRANCH   1  18
BRANCH   6  21
ATOM     21  N   UNL     1       7.013  32.192   6.411  0.00  0.00    -0.279 N 
ATOM     22  H   UNL     1       6.060  32.256   6.766  0.00  0.00    +0.155 HD
ATOM     23  C   UNL     1       7.189  32.249   5.023  0.00  0.00    +0.241 C 
ATOM     24  O   UNL     1       8.248  32.190   4.407  0.00  0.00    -0.271 OA
BRANCH  23  25
ATOM     25  C   UNL     1       5.888  32.399   4.309  0.00  0.00    +0.060 C 
ATOM     26  C   UNL     1       5.846  32.459   2.975  0.00  0.00    +0.013 C 
ENDBRANCH  23  25
ENDBRANCH   6  21
BRANCH   7  27
ATOM     27  O   UNL     1       6.988  33.786   8.726  0.00  0.00    -0.490 OA
BRANCH  27  28
ATOM     28  C   UNL     1       7.291  35.119   8.337  0.00  0.00    +0.230 C 
BRANCH  28  29
ATOM     29  C   UNL     1       6.013  35.791   7.851  0.00  0.00    +0.056 C 
BRANCH  29  30
ATOM     30  C   UNL     1       6.310  37.104   7.131  0.00  0.00    +0.088 C 
BRANCH  30  31
ATOM     31  N   UNL     1       5.740  37.085   5.787  0.00  0.00    -0.298 NA
ATOM     32  C   UNL     1       6.369  36.040   4.968  0.00  0.00    +0.112 C 
ATOM     33  C   UNL     1       5.750  36.032   3.573  0.00  0.00    +0.175 C 
ATOM     34  O   UNL     1       4.340  35.817   3.657  0.00  0.00    -0.377 OA
ATOM     35  C   UNL     1       3.716  36.847   4.425  0.00  0.00    +0.175 C 
ATOM     36  C   UNL     1       4.287  36.875   5.840  0.00  0.00    +0.112 C 
ENDBRANCH  30  31
ENDBRANCH  29  30
ENDBRANCH  28  29
ENDBRANCH  27  28
ENDBRANCH   7  27
TORSDOF 8
ENDMDL
MODEL 15
REMARK VINA RESULT:      -7.3      5.931     11.146
REMARK  Name = 156414
REMARK  8 active torsions:
REMARK  status: ('A' for Active; 'I' for Inactive)
REMARK    1  A    between atoms: O_4  and  C_17
REMARK    2  A    between atoms: O_4  and  C_18
REMARK    3  A    between atoms: N_6  and  C_11
REMARK    4  A    between atoms: N_7  and  C_19
REMARK    5  A    between atoms: N_8  and  C_25
REMARK    6  A    between atoms: C_11  and  C_14
REMARK    7  A    between atoms: C_14  and  C_17
REMARK    8  A    between atoms: C_27  and  C_32
REMARK                            x       y       z     vdW  Elec       q    Type
REMARK                         _______ _______ _______ _____ _____    ______ ____
ROOT
ATOM      1  N   UNL     1      11.706  30.359  12.178  0.00  0.00    -0.299 N 
ATOM      2  H   UNL     1      11.371  29.438  11.910  0.00  0.00    +0.154 HD
ATOM      3  C   UNL     1      10.985  31.407  11.555  0.00  0.00    +0.134 A 
ATOM      4  C   UNL     1      10.719  31.335  10.190  0.00  0.00    +0.042 A 
ATOM      5  C   UNL     1      11.136  30.260   9.387  0.00  0.00    +0.040 A 
ATOM      6  C   UNL     1      10.837  30.250   8.028  0.00  0.00    +0.077 A 
ATOM      7  C   UNL     1      10.127  31.309   7.474  0.00  0.00    +0.144 A 
ATOM      8  C   UNL     1       9.715  32.375   8.280  0.00  0.00    +0.076 A 
ATOM      9  C   UNL     1      10.001  32.411   9.642  0.00  0.00    +0.080 A 
ATOM     10  N   UNL     1       9.597  33.445  10.401  0.00  0.00    -0.235 NA
ATOM     11  C   UNL     1       9.916  33.397  11.710  0.00  0.00    +0.223 A 
ATOM     12  N   UNL     1      10.595  32.427  12.344  0.00  0.00    -0.220 NA
ENDROOT
BRANCH   1  18
ATOM     13 CL   UNL     1      13.281  27.945  16.413  0.00  0.00    -0.081 Cl
ATOM     14  C   UNL     1      13.365  29.250  15.293  0.00  0.00    +0.078 A 
ATOM     15  C   UNL     1      14.290  30.278  15.480  0.00  0.00    +0.142 A 
ATOM     16  C   UNL     1      14.355  31.332  14.570  0.00  0.00    +0.041 A 
ATOM     17  C   UNL     1      13.495  31.359  13.471  0.00  0.00    +0.026 A 
ATOM     18  C   UNL     1      12.571  30.331  13.284  0.00  0.00    +0.034 A 
ATOM     19  F   UNL     1      15.123  30.265  16.531  0.00  0.00    -0.204 F 
ATOM     20  C   UNL     1      12.506  29.277  14.195  0.00  0.00    +0.046 A 
ENDBRANCH   1  18
BRANCH   6  21
ATOM     21  N   UNL     1      11.256  29.177   7.237  0.00  0.00    -0.279 N 
ATOM     22  H   UNL     1      10.625  28.377   7.241  0.00  0.00    +0.155 HD
ATOM     23  C   UNL     1      12.417  29.080   6.461  0.00  0.00    +0.241 C 
ATOM     24  O   UNL     1      13.293  29.928   6.327  0.00  0.00    -0.271 OA
BRANCH  23  25
ATOM     25  C   UNL     1      12.502  27.765   5.762  0.00  0.00    +0.060 C 
ATOM     26  C   UNL     1      13.625  27.041   5.807  0.00  0.00    +0.013 C 
ENDBRANCH  23  25
ENDBRANCH   6  21
BRANCH   7  27
ATOM     27  O   UNL     1       9.818  31.329   6.138  0.00  0.00    -0.490 OA
BRANCH  27  28
ATOM     28  C   UNL     1       9.207  32.510   5.639  0.00  0.00    +0.230 C 
BRANCH  28  29
ATOM     29  C   UNL     1       7.764  32.197   5.264  0.00  0.00    +0.056 C 
BRANCH  29  30
ATOM     30  C   UNL     1       6.780  32.879   6.209  0.00  0.00    +0.088 C 
BRANCH  30  31
ATOM     31  N   UNL     1       6.185  34.047   5.565  0.00  0.00    -0.298 NA
ATOM     32  C   UNL     1       7.009  35.243   5.788  0.00  0.00    +0.112 C 
ATOM     33  C   UNL     1       6.375  36.446   5.096  0.00  0.00    +0.175 C 
ATOM     34  O   UNL     1       6.230  36.195   3.697  0.00  0.00    -0.377 OA
ATOM     35  C   UNL     1       5.403  35.053   3.470  0.00  0.00    +0.175 C 
ATOM     36  C   UNL     1       6.014  33.816   4.124  0.00  0.00    +0.112 C 
ENDBRANCH  30  31
ENDBRANCH  29  30
ENDBRANCH  28  29
ENDBRANCH  27  28
ENDBRANCH   7  27
TORSDOF 8
ENDMDL
MODEL 16
REMARK VINA RESULT:      -7.2      5.669      8.677
REMARK  Name = 156414
REMARK  8 active torsions:
REMARK  status: ('A' for Active; 'I' for Inactive)
REMARK    1  A    between atoms: O_4  and  C_17
REMARK    2  A    between atoms: O_4  and  C_18
REMARK    3  A    between atoms: N_6  and  C_11
REMARK    4  A    between atoms: N_7  and  C_19
REMARK    5  A    between atoms: N_8  and  C_25
REMARK    6  A    between atoms: C_11  and  C_14
REMARK    7  A    between atoms: C_14  and  C_17
REMARK    8  A    between atoms: C_27  and  C_32
REMARK                            x       y       z     vdW  Elec       q    Type
REMARK                         _______ _______ _______ _____ _____    ______ ____
ROOT
ATOM      1  N   UNL     1      10.923  29.430   6.965  0.00  0.00    -0.299 N 
ATOM      2  H   UNL     1      10.043  28.997   6.697  0.00  0.00    +0.154 HD
ATOM      3  C   UNL     1      10.788  30.306   8.071  0.00  0.00    +0.134 A 
ATOM      4  C   UNL     1       9.739  31.222   8.092  0.00  0.00    +0.042 A 
ATOM      5  C   UNL     1       8.793  31.323   7.058  0.00  0.00    +0.040 A 
ATOM      6  C   UNL     1       7.768  32.261   7.141  0.00  0.00    +0.077 A 
ATOM      7  C   UNL     1       7.690  33.094   8.252  0.00  0.00    +0.144 A 
ATOM      8  C   UNL     1       8.634  32.987   9.277  0.00  0.00    +0.076 A 
ATOM      9  C   UNL     1       9.670  32.058   9.219  0.00  0.00    +0.080 A 
ATOM     10  N   UNL     1      10.570  31.970  10.214  0.00  0.00    -0.235 NA
ATOM     11  C   UNL     1      11.538  31.041  10.076  0.00  0.00    +0.223 A 
ATOM     12  N   UNL     1      11.705  30.191   9.050  0.00  0.00    -0.220 NA
ENDROOT
BRANCH   1  18
ATOM     13 CL   UNL     1      12.868  25.430   4.424  0.00  0.00    -0.081 Cl
ATOM     14  C   UNL     1      13.026  26.975   5.168  0.00  0.00    +0.078 A 
ATOM     15  C   UNL     1      14.260  27.628   5.175  0.00  0.00    +0.142 A 
ATOM     16  C   UNL     1      14.383  28.879   5.779  0.00  0.00    +0.041 A 
ATOM     17  C   UNL     1      13.272  29.479   6.375  0.00  0.00    +0.026 A 
ATOM     18  C   UNL     1      12.039  28.827   6.366  0.00  0.00    +0.034 A 
ATOM     19  F   UNL     1      15.335  27.064   4.607  0.00  0.00    -0.204 F 
ATOM     20  C   UNL     1      11.917  27.575   5.763  0.00  0.00    +0.046 A 
ENDBRANCH   1  18
BRANCH   6  21
ATOM     21  N   UNL     1       6.833  32.354   6.108  0.00  0.00    -0.279 N 
ATOM     22  H   UNL     1       5.867  32.454   6.419  0.00  0.00    +0.155 HD
ATOM     23  C   UNL     1       7.067  32.327   4.728  0.00  0.00    +0.241 C 
ATOM     24  O   UNL     1       8.149  32.215   4.162  0.00  0.00    -0.271 OA
BRANCH  23  25
ATOM     25  C   UNL     1       5.799  32.454   3.953  0.00  0.00    +0.060 C 
ATOM     26  C   UNL     1       5.823  32.777   2.656  0.00  0.00    +0.013 C 
ENDBRANCH  23  25
ENDBRANCH   6  21
BRANCH   7  27
ATOM     27  O   UNL     1       6.693  34.028   8.362  0.00  0.00    -0.490 OA
BRANCH  27  28
ATOM     28  C   UNL     1       5.882  33.966   9.527  0.00  0.00    +0.230 C 
BRANCH  28  29
ATOM     29  C   UNL     1       5.772  35.362  10.126  0.00  0.00    +0.056 C 
BRANCH  29  30
ATOM     30  C   UNL     1       5.699  36.432   9.041  0.00  0.00    +0.088 C 
BRANCH  30  31
ATOM     31  N   UNL     1       6.574  37.553   9.375  0.00  0.00    -0.298 NA
ATOM     32  C   UNL     1       7.940  37.086   9.645  0.00  0.00    +0.112 C 
ATOM     33  C   UNL     1       8.838  38.274   9.980  0.00  0.00    +0.175 C 
ATOM     34  O   UNL     1       8.837  39.215   8.904  0.00  0.00    -0.377 OA
ATOM     35  C   UNL     1       7.517  39.699   8.655  0.00  0.00    +0.175 C 
ATOM     36  C   UNL     1       6.588  38.545   8.290  0.00  0.00    +0.112 C 
ENDBRANCH  30  31
ENDBRANCH  29  30
ENDBRANCH  28  29
ENDBRANCH  27  28
ENDBRANCH   7  27
TORSDOF 8
ENDMDL
MODEL 17
REMARK VINA RESULT:      -7.2      5.101      8.075
REMARK  Name = 156414
REMARK  8 active torsions:
REMARK  status: ('A' for Active; 'I' for Inactive)
REMARK    1  A    between atoms: O_4  and  C_17
REMARK    2  A    between atoms: O_4  and  C_18
REMARK    3  A    between atoms: N_6  and  C_11
REMARK    4  A    between atoms: N_7  and  C_19
REMARK    5  A    between atoms: N_8  and  C_25
REMARK    6  A    between atoms: C_11  and  C_14
REMARK    7  A    between atoms: C_14  and  C_17
REMARK    8  A    between atoms: C_27  and  C_32
REMARK                            x       y       z     vdW  Elec       q    Type
REMARK                         _______ _______ _______ _____ _____    ______ ____
ROOT
ATOM      1  N   UNL     1      11.981  30.094   7.488  0.00  0.00    -0.299 N 
ATOM      2  H   UNL     1      12.158  30.452   8.422  0.00  0.00    +0.154 HD
ATOM      3  C   UNL     1      11.273  31.013   6.674  0.00  0.00    +0.134 A 
ATOM      4  C   UNL     1      10.159  31.667   7.193  0.00  0.00    +0.042 A 
ATOM      5  C   UNL     1       9.692  31.459   8.502  0.00  0.00    +0.040 A 
ATOM      6  C   UNL     1       8.571  32.146   8.958  0.00  0.00    +0.077 A 
ATOM      7  C   UNL     1       7.919  33.034   8.111  0.00  0.00    +0.144 A 
ATOM      8  C   UNL     1       8.390  33.236   6.810  0.00  0.00    +0.076 A 
ATOM      9  C   UNL     1       9.509  32.562   6.327  0.00  0.00    +0.080 A 
ATOM     10  N   UNL     1       9.946  32.769   5.073  0.00  0.00    -0.235 NA
ATOM     11  C   UNL     1      11.037  32.075   4.689  0.00  0.00    +0.223 A 
ATOM     12  N   UNL     1      11.738  31.197   5.423  0.00  0.00    -0.220 NA
ENDROOT
BRANCH   1  18
ATOM     13 CL   UNL     1      15.713  26.851   8.828  0.00  0.00    -0.081 Cl
ATOM     14  C   UNL     1      14.469  27.370   7.756  0.00  0.00    +0.078 A 
ATOM     15  C   UNL     1      14.197  26.648   6.593  0.00  0.00    +0.142 A 
ATOM     16  C   UNL     1      13.189  27.072   5.729  0.00  0.00    +0.041 A 
ATOM     17  C   UNL     1      12.451  28.219   6.026  0.00  0.00    +0.026 A 
ATOM     18  C   UNL     1      12.723  28.940   7.189  0.00  0.00    +0.034 A 
ATOM     19  F   UNL     1      14.897  25.544   6.295  0.00  0.00    -0.204 F 
ATOM     20  C   UNL     1      13.732  28.516   8.053  0.00  0.00    +0.046 A 
ENDBRANCH   1  18
BRANCH   6  21
ATOM     21  N   UNL     1       8.115  31.932  10.261  0.00  0.00    -0.279 N 
ATOM     22  H   UNL     1       8.694  32.353  10.987  0.00  0.00    +0.155 HD
ATOM     23  C   UNL     1       6.981  31.221  10.672  0.00  0.00    +0.241 C 
ATOM     24  O   UNL     1       6.166  30.648   9.956  0.00  0.00    -0.271 OA
BRANCH  23  25
ATOM     25  C   UNL     1       6.839  31.222  12.157  0.00  0.00    +0.060 C 
ATOM     26  C   UNL     1       7.056  32.338  12.860  0.00  0.00    +0.013 C 
ENDBRANCH  23  25
ENDBRANCH   6  21
BRANCH   7  27
ATOM     27  O   UNL     1       6.812  33.725   8.531  0.00  0.00    -0.490 OA
BRANCH  27  28
ATOM     28  C   UNL     1       6.789  35.121   8.269  0.00  0.00    +0.230 C 
BRANCH  28  29
ATOM     29  C   UNL     1       6.713  35.869   9.594  0.00  0.00    +0.056 C 
BRANCH  29  30
ATOM     30  C   UNL     1       8.092  36.323  10.061  0.00  0.00    +0.088 C 
BRANCH  30  31
ATOM     31  N   UNL     1       8.527  35.528  11.206  0.00  0.00    -0.298 NA
ATOM     32  C   UNL     1       9.884  35.005  10.994  0.00  0.00    +0.112 C 
ATOM     33  C   UNL     1      10.321  34.189  12.207  0.00  0.00    +0.175 C 
ATOM     34  O   UNL     1      10.276  34.992  13.388  0.00  0.00    -0.377 OA
ATOM     35  C   UNL     1       8.954  35.479  13.620  0.00  0.00    +0.175 C 
ATOM     36  C   UNL     1       8.483  36.325  12.440  0.00  0.00    +0.112 C 
ENDBRANCH  30  31
ENDBRANCH  29  30
ENDBRANCH  28  29
ENDBRANCH  27  28
ENDBRANCH   7  27
TORSDOF 8
ENDMDL
MODEL 18
REMARK VINA RESULT:      -7.2      5.645      9.263
REMARK  Name = 156414
REMARK  8 active torsions:
REMARK  status: ('A' for Active; 'I' for Inactive)
REMARK    1  A    between atoms: O_4  and  C_17
REMARK    2  A    between atoms: O_4  and  C_18
REMARK    3  A    between atoms: N_6  and  C_11
REMARK    4  A    between atoms: N_7  and  C_19
REMARK    5  A    between atoms: N_8  and  C_25
REMARK    6  A    between atoms: C_11  and  C_14
REMARK    7  A    between atoms: C_14  and  C_17
REMARK    8  A    between atoms: C_27  and  C_32
REMARK                            x       y       z     vdW  Elec       q    Type
REMARK                         _______ _______ _______ _____ _____    ______ ____
ROOT
ATOM      1  N   UNL     1      11.018  29.324   6.917  0.00  0.00    -0.299 N 
ATOM      2  H   UNL     1      10.133  28.900   6.655  0.00  0.00    +0.154 HD
ATOM      3  C   UNL     1      10.903  30.184   8.037  0.00  0.00    +0.134 A 
ATOM      4  C   UNL     1       9.859  31.104   8.087  0.00  0.00    +0.042 A 
ATOM      5  C   UNL     1       8.899  31.226   7.067  0.00  0.00    +0.040 A 
ATOM      6  C   UNL     1       7.881  32.167   7.179  0.00  0.00    +0.077 A 
ATOM      7  C   UNL     1       7.821  32.983   8.303  0.00  0.00    +0.144 A 
ATOM      8  C   UNL     1       8.780  32.856   9.313  0.00  0.00    +0.076 A 
ATOM      9  C   UNL     1       9.810  31.923   9.227  0.00  0.00    +0.080 A 
ATOM     10  N   UNL     1      10.722  31.816  10.208  0.00  0.00    -0.235 NA
ATOM     11  C   UNL     1      11.684  30.885  10.043  0.00  0.00    +0.223 A 
ATOM     12  N   UNL     1      11.833  30.050   9.002  0.00  0.00    -0.220 NA
ENDROOT
BRANCH   1  18
ATOM     13 CL   UNL     1      12.947  25.289   4.419  0.00  0.00    -0.081 Cl
ATOM     14  C   UNL     1      13.102  26.857   5.112  0.00  0.00    +0.078 A 
ATOM     15  C   UNL     1      14.322  27.533   5.055  0.00  0.00    +0.142 A 
ATOM     16  C   UNL     1      14.442  28.803   5.617  0.00  0.00    +0.041 A 
ATOM     17  C   UNL     1      13.343  29.399   6.237  0.00  0.00    +0.026 A 
ATOM     18  C   UNL     1      12.124  28.724   6.294  0.00  0.00    +0.034 A 
ATOM     19  F   UNL     1      15.386  26.974   4.463  0.00  0.00    -0.204 F 
ATOM     20  C   UNL     1      12.004  27.453   5.731  0.00  0.00    +0.046 A 
ENDBRANCH   1  18
BRANCH   6  21
ATOM     21  N   UNL     1       6.932  32.280   6.160  0.00  0.00    -0.279 N 
ATOM     22  H   UNL     1       5.970  32.369   6.486  0.00  0.00    +0.155 HD
ATOM     23  C   UNL     1       7.148  32.285   4.777  0.00  0.00    +0.241 C 
ATOM     24  O   UNL     1       8.223  32.191   4.195  0.00  0.00    -0.271 OA
BRANCH  23  25
ATOM     25  C   UNL     1       5.870  32.425   4.021  0.00  0.00    +0.060 C 
ATOM     26  C   UNL     1       5.877  32.744   2.723  0.00  0.00    +0.013 C 
ENDBRANCH  23  25
ENDBRANCH   6  21
BRANCH   7  27
ATOM     27  O   UNL     1       6.831  33.920   8.441  0.00  0.00    -0.490 OA
BRANCH  27  28
ATOM     28  C   UNL     1       5.916  33.733   9.512  0.00  0.00    +0.230 C 
BRANCH  28  29
ATOM     29  C   UNL     1       4.499  33.721   8.952  0.00  0.00    +0.056 C 
BRANCH  29  30
ATOM     30  C   UNL     1       4.161  32.379   8.309  0.00  0.00    +0.088 C 
BRANCH  30  31
ATOM     31  N   UNL     1       3.747  32.571   6.922  0.00  0.00    -0.298 NA
ATOM     32  C   UNL     1       2.668  31.640   6.566  0.00  0.00    +0.112 C 
ATOM     33  C   UNL     1       2.244  31.867   5.117  0.00  0.00    +0.175 C 
ATOM     34  O   UNL     1       1.819  33.219   4.931  0.00  0.00    -0.377 OA
ATOM     35  C   UNL     1       2.872  34.130   5.244  0.00  0.00    +0.175 C 
ATOM     36  C   UNL     1       3.312  33.956   6.695  0.00  0.00    +0.112 C 
ENDBRANCH  30  31
ENDBRANCH  29  30
ENDBRANCH  28  29
ENDBRANCH  27  28
ENDBRANCH   7  27
TORSDOF 8
ENDMDL
MODEL 19
REMARK VINA RESULT:      -7.1      5.076      8.357
REMARK  Name = 156414
REMARK  8 active torsions:
REMARK  status: ('A' for Active; 'I' for Inactive)
REMARK    1  A    between atoms: O_4  and  C_17
REMARK    2  A    between atoms: O_4  and  C_18
REMARK    3  A    between atoms: N_6  and  C_11
REMARK    4  A    between atoms: N_7  and  C_19
REMARK    5  A    between atoms: N_8  and  C_25
REMARK    6  A    between atoms: C_11  and  C_14
REMARK    7  A    between atoms: C_14  and  C_17
REMARK    8  A    between atoms: C_27  and  C_32
REMARK                            x       y       z     vdW  Elec       q    Type
REMARK                         _______ _______ _______ _____ _____    ______ ____
ROOT
ATOM      1  N   UNL     1      12.374  30.091   7.401  0.00  0.00    -0.299 N 
ATOM      2  H   UNL     1      12.731  30.531   8.244  0.00  0.00    +0.154 HD
ATOM      3  C   UNL     1      11.523  30.944   6.655  0.00  0.00    +0.134 A 
ATOM      4  C   UNL     1      10.533  31.667   7.314  0.00  0.00    +0.042 A 
ATOM      5  C   UNL     1      10.330  31.593   8.703  0.00  0.00    +0.040 A 
ATOM      6  C   UNL     1       9.321  32.342   9.299  0.00  0.00    +0.077 A 
ATOM      7  C   UNL     1       8.518  33.161   8.513  0.00  0.00    +0.144 A 
ATOM      8  C   UNL     1       8.726  33.229   7.132  0.00  0.00    +0.076 A 
ATOM      9  C   UNL     1       9.728  32.490   6.509  0.00  0.00    +0.080 A 
ATOM     10  N   UNL     1       9.913  32.569   5.180  0.00  0.00    -0.235 NA
ATOM     11  C   UNL     1      10.907  31.819   4.660  0.00  0.00    +0.223 A 
ATOM     12  N   UNL     1      11.736  30.999   5.326  0.00  0.00    -0.220 NA
ENDROOT
BRANCH   1  18
ATOM     13 CL   UNL     1      15.820  26.536   8.715  0.00  0.00    -0.081 Cl
ATOM     14  C   UNL     1      14.652  27.185   7.629  0.00  0.00    +0.078 A 
ATOM     15  C   UNL     1      14.367  26.531   6.430  0.00  0.00    +0.142 A 
ATOM     16  C   UNL     1      13.421  27.061   5.555  0.00  0.00    +0.041 A 
ATOM     17  C   UNL     1      12.757  28.245   5.877  0.00  0.00    +0.026 A 
ATOM     18  C   UNL     1      13.041  28.899   7.076  0.00  0.00    +0.034 A 
ATOM     19  F   UNL     1      14.996  25.392   6.106  0.00  0.00    -0.204 F 
ATOM     20  C   UNL     1      13.989  28.369   7.952  0.00  0.00    +0.046 A 
ENDBRANCH   1  18
BRANCH   6  21
ATOM     21  N   UNL     1       9.126  32.261  10.680  0.00  0.00    -0.279 N 
ATOM     22  H   UNL     1       8.602  31.443  10.986  0.00  0.00    +0.155 HD
ATOM     23  C   UNL     1       9.560  33.156  11.666  0.00  0.00    +0.241 C 
ATOM     24  O   UNL     1      10.200  34.188  11.500  0.00  0.00    -0.271 OA
BRANCH  23  25
ATOM     25  C   UNL     1       9.149  32.713  13.030  0.00  0.00    +0.060 C 
ATOM     26  C   UNL     1       9.528  33.400  14.112  0.00  0.00    +0.013 C 
ENDBRANCH  23  25
ENDBRANCH   6  21
BRANCH   7  27
ATOM     27  O   UNL     1       7.515  33.910   9.071  0.00  0.00    -0.490 OA
BRANCH  27  28
ATOM     28  C   UNL     1       6.182  33.535   8.755  0.00  0.00    +0.230 C 
BRANCH  28  29
ATOM     29  C   UNL     1       5.642  32.650   9.872  0.00  0.00    +0.056 C 
BRANCH  29  30
ATOM     30  C   UNL     1       5.022  31.370   9.322  0.00  0.00    +0.088 C 
BRANCH  30  31
ATOM     31  N   UNL     1       4.982  30.340  10.357  0.00  0.00    -0.298 NA
ATOM     32  C   UNL     1       6.056  30.545  11.338  0.00  0.00    +0.112 C 
ATOM     33  C   UNL     1       5.987  29.466  12.415  0.00  0.00    +0.175 C 
ATOM     34  O   UNL     1       4.713  29.489  13.060  0.00  0.00    -0.377 OA
ATOM     35  C   UNL     1       3.664  29.258  12.119  0.00  0.00    +0.175 C 
ATOM     36  C   UNL     1       3.678  30.332  11.034  0.00  0.00    +0.112 C 
ENDBRANCH  30  31
ENDBRANCH  29  30
ENDBRANCH  28  29
ENDBRANCH  27  28
ENDBRANCH   7  27
TORSDOF 8
ENDMDL
MODEL 20
REMARK VINA RESULT:      -7.0      5.582     10.190
REMARK  Name = 156414
REMARK  8 active torsions:
REMARK  status: ('A' for Active; 'I' for Inactive)
REMARK    1  A    between atoms: O_4  and  C_17
REMARK    2  A    between atoms: O_4  and  C_18
REMARK    3  A    between atoms: N_6  and  C_11
REMARK    4  A    between atoms: N_7  and  C_19
REMARK    5  A    between atoms: N_8  and  C_25
REMARK    6  A    between atoms: C_11  and  C_14
REMARK    7  A    between atoms: C_14  and  C_17
REMARK    8  A    between atoms: C_27  and  C_32
REMARK                            x       y       z     vdW  Elec       q    Type
REMARK                         _______ _______ _______ _____ _____    ______ ____
ROOT
ATOM      1  N   UNL     1       8.201  33.033   7.224  0.00  0.00    -0.299 N 
ATOM      2  H   UNL     1       7.771  32.439   7.928  0.00  0.00    +0.154 HD
ATOM      3  C   UNL     1       9.202  32.363   6.479  0.00  0.00    +0.134 A 
ATOM      4  C   UNL     1      10.149  31.592   7.147  0.00  0.00    +0.042 A 
ATOM      5  C   UNL     1      10.164  31.443   8.544  0.00  0.00    +0.040 A 
ATOM      6  C   UNL     1      11.140  30.657   9.150  0.00  0.00    +0.077 A 
ATOM      7  C   UNL     1      12.097  30.025   8.365  0.00  0.00    +0.144 A 
ATOM      8  C   UNL     1      12.075  30.178   6.975  0.00  0.00    +0.076 A 
ATOM      9  C   UNL     1      11.111  30.958   6.343  0.00  0.00    +0.080 A 
ATOM     10  N   UNL     1      11.107  31.094   5.005  0.00  0.00    -0.235 NA
ATOM     11  C   UNL     1      10.136  31.867   4.477  0.00  0.00    +0.223 A 
ATOM     12  N   UNL     1       9.169  32.519   5.141  0.00  0.00    -0.220 NA
ENDROOT
BRANCH   1  18
ATOM     13 CL   UNL     1       5.448  35.930   4.019  0.00  0.00    -0.081 Cl
ATOM     14  C   UNL     1       6.191  35.647   5.546  0.00  0.00    +0.078 A 
ATOM     15  C   UNL     1       6.092  36.598   6.563  0.00  0.00    +0.142 A 
ATOM     16  C   UNL     1       6.695  36.363   7.798  0.00  0.00    +0.041 A 
ATOM     17  C   UNL     1       7.397  35.177   8.018  0.00  0.00    +0.026 A 
ATOM     18  C   UNL     1       7.495  34.226   7.002  0.00  0.00    +0.034 A 
ATOM     19  F   UNL     1       5.422  37.742   6.366  0.00  0.00    -0.204 F 
ATOM     20  C   UNL     1       6.892  34.461   5.767  0.00  0.00    +0.046 A 
ENDBRANCH   1  18
BRANCH   6  21
ATOM     21  N   UNL     1      11.146  30.515  10.540  0.00  0.00    -0.279 N 
ATOM     22  H   UNL     1      11.349  29.572  10.868  0.00  0.00    +0.155 HD
ATOM     23  C   UNL     1      10.911  31.499  11.508  0.00  0.00    +0.241 C 
ATOM     24  O   UNL     1      10.653  32.682  11.315  0.00  0.00    -0.271 OA
BRANCH  23  25
ATOM     25  C   UNL     1      11.008  30.944  12.890  0.00  0.00    +0.060 C 
ATOM     26  C   UNL     1      10.278  31.460  13.884  0.00  0.00    +0.013 C 
ENDBRANCH  23  25
ENDBRANCH   6  21
BRANCH   7  27
ATOM     27  O   UNL     1      13.071  29.245   8.932  0.00  0.00    -0.490 OA
BRANCH  27  28
ATOM     28  C   UNL     1      14.329  29.209   8.272  0.00  0.00    +0.230 C 
BRANCH  28  29
ATOM     29  C   UNL     1      14.794  27.762   8.178  0.00  0.00    +0.056 C 
BRANCH  29  30
ATOM     30  C   UNL     1      13.748  26.880   7.504  0.00  0.00    +0.088 C 
BRANCH  30  31
ATOM     31  N   UNL     1      14.349  26.134   6.401  0.00  0.00    -0.298 NA
ATOM     32  C   UNL     1      13.891  26.656   5.106  0.00  0.00    +0.112 C 
ATOM     33  C   UNL     1      14.540  25.870   3.971  0.00  0.00    +0.175 C 
ATOM     34  O   UNL     1      15.964  25.948   4.064  0.00  0.00    -0.377 OA
ATOM     35  C   UNL     1      16.421  25.413   5.306  0.00  0.00    +0.175 C 
ATOM     36  C   UNL     1      15.816  26.187   6.474  0.00  0.00    +0.112 C 
ENDBRANCH  30  31
ENDBRANCH  29  30
ENDBRANCH  28  29
ENDBRANCH  27  28
ENDBRANCH   7  27
TORSDOF 8
ENDMDL
