MODEL 1
REMARK VINA RESULT:     -10.7      0.000      0.000
REMARK  Name = 156422
REMARK  12 active torsions:
REMARK  status: ('A' for Active; 'I' for Inactive)
REMARK    1  A    between atoms: O_2  and  C_20
REMARK    2  A    between atoms: O_2  and  C_23
REMARK    3  A    between atoms: N_4  and  C_13
REMARK    4  A    between atoms: N_5  and  C_22
REMARK    5  A    between atoms: N_7  and  C_21
REMARK    6  A    between atoms: N_8  and  C_26
REMARK    7  A    between atoms: C_9  and  C_12
REMARK    8  A    between atoms: C_9  and  C_16
REMARK    9  A    between atoms: C_9  and  C_17
REMARK   10  A    between atoms: C_9  and  C_18
REMARK   11  A    between atoms: C_13  and  C_20
REMARK   12  A    between atoms: C_36  and  C_39
REMARK                            x       y       z     vdW  Elec       q    Type
REMARK                         _______ _______ _______ _____ _____    ______ ____
ROOT
ATOM      1  N   UNL     1      13.015  27.297   7.018  0.00  0.00    -0.269 N 
ATOM      2  H   UNL     1      13.283  27.105   7.977  0.00  0.00    +0.156 HD
ATOM      3  C   UNL     1      12.246  28.475   6.861  0.00  0.00    +0.309 C 
ATOM      4  N   UNL     1      11.826  28.933   8.119  0.00  0.00    -0.254 N 
ATOM      5  H   UNL     1      12.124  28.398   8.929  0.00  0.00    +0.158 HD
ATOM      6  O   UNL     1      11.995  29.003   5.783  0.00  0.00    -0.252 OA
ENDROOT
BRANCH   1  10
ATOM      7  C   UNL     1      14.740  24.971   3.993  0.00  0.00    +0.128 A 
ATOM      8  C   UNL     1      13.464  25.514   3.839  0.00  0.00    +0.048 A 
ATOM      9  C   UNL     1      12.908  26.285   4.855  0.00  0.00    +0.027 A 
ATOM     10  C   UNL     1      13.625  26.516   6.028  0.00  0.00    +0.043 A 
ATOM     11  C   UNL     1      14.911  25.978   6.201  0.00  0.00    +0.007 A 
ATOM     12  C   UNL     1      15.647  26.200   7.375  0.00  0.00    +0.010 A 
ATOM     13  C   UNL     1      16.922  25.658   7.530  0.00  0.00    +0.001 A 
ATOM     14  C   UNL     1      17.480  24.886   6.513  0.00  0.00    +0.001 A 
ATOM     15  C   UNL     1      16.762  24.655   5.340  0.00  0.00    +0.012 A 
ATOM     16  C   UNL     1      15.477  25.194   5.167  0.00  0.00    +0.026 A 
BRANCH   7  17
ATOM     17  O   UNL     1      15.245  24.222   2.968  0.00  0.00    -0.490 OA
BRANCH  17  18
ATOM     18  C   UNL     1      14.353  23.898   1.905  0.00  0.00    +0.244 C 
BRANCH  18  19
ATOM     19  C   UNL     1      14.880  24.515   0.620  0.00  0.00    +0.125 C 
BRANCH  19  23
ATOM     20  O   UNL     1      11.212  24.254  -1.402  0.00  0.00    -0.377 OA
ATOM     21  C   UNL     1      12.054  23.101  -1.416  0.00  0.00    +0.175 C 
ATOM     22  C   UNL     1      13.088  23.186  -0.297  0.00  0.00    +0.112 C 
ATOM     23  N   UNL     1      13.889  24.408  -0.449  0.00  0.00    -0.295 NA
ATOM     24  C   UNL     1      13.012  25.586  -0.467  0.00  0.00    +0.112 C 
ATOM     25  C   UNL     1      11.978  25.445  -1.581  0.00  0.00    +0.175 C 
ENDBRANCH  19  23
ENDBRANCH  18  19
ENDBRANCH  17  18
ENDBRANCH   7  17
ENDBRANCH   1  10
BRANCH   4  26
ATOM     26  C   UNL     1      11.049  30.066   8.375  0.00  0.00    +0.130 A 
ATOM     27  C   UNL     1      10.030  30.626   7.645  0.00  0.00    +0.069 A 
ATOM     28  C   UNL     1       9.631  31.747   8.398  0.00  0.00    +0.071 A 
ATOM     29  N   UNL     1      10.341  31.891   9.520  0.00  0.00    -0.169 NA
ATOM     30  N   UNL     1      11.194  30.853   9.478  0.00  0.00    -0.218 N 
BRANCH  30  31
ATOM     31  C   UNL     1      12.113  30.674  10.513  0.00  0.00    +0.067 A 
ATOM     32  C   UNL     1      11.695  30.766  11.842  0.00  0.00    +0.028 A 
ATOM     33  C   UNL     1      12.615  30.589  12.875  0.00  0.00    +0.005 A 
ATOM     34  C   UNL     1      13.951  30.320  12.582  0.00  0.00    -0.050 A 
ATOM     35  C   UNL     1      14.933  30.127  13.687  0.00  0.00    +0.044 C 
ATOM     36  C   UNL     1      14.369  30.226  11.254  0.00  0.00    +0.005 A 
ATOM     37  C   UNL     1      13.450  30.405  10.220  0.00  0.00    +0.028 A 
ENDBRANCH  30  31
BRANCH  28  38
ATOM     38  C   UNL     1       8.568  32.713   8.075  0.00  0.00    +0.006 C 
ATOM     39  C   UNL     1       8.503  33.991   8.992  0.00  0.00    +0.017 C 
ATOM     40  C   UNL     1       8.700  33.287   6.619  0.00  0.00    +0.017 C 
ATOM     41  C   UNL     1       7.133  32.086   8.179  0.00  0.00    +0.017 C 
ENDBRANCH  28  38
ENDBRANCH   4  26
TORSDOF 8
ENDMDL
MODEL 2
REMARK VINA RESULT:     -10.6      3.303      9.071
REMARK  Name = 156422
REMARK  12 active torsions:
REMARK  status: ('A' for Active; 'I' for Inactive)
REMARK    1  A    between atoms: O_2  and  C_20
REMARK    2  A    between atoms: O_2  and  C_23
REMARK    3  A    between atoms: N_4  and  C_13
REMARK    4  A    between atoms: N_5  and  C_22
REMARK    5  A    between atoms: N_7  and  C_21
REMARK    6  A    between atoms: N_8  and  C_26
REMARK    7  A    between atoms: C_9  and  C_12
REMARK    8  A    between atoms: C_9  and  C_16
REMARK    9  A    between atoms: C_9  and  C_17
REMARK   10  A    between atoms: C_9  and  C_18
REMARK   11  A    between atoms: C_13  and  C_20
REMARK   12  A    between atoms: C_36  and  C_39
REMARK                            x       y       z     vdW  Elec       q    Type
REMARK                         _______ _______ _______ _____ _____    ______ ____
ROOT
ATOM      1  N   UNL     1      12.181  30.656   6.530  0.00  0.00    -0.269 N 
ATOM      2  H   UNL     1      13.016  31.069   6.932  0.00  0.00    +0.156 HD
ATOM      3  C   UNL     1      12.300  29.274   6.253  0.00  0.00    +0.309 C 
ATOM      4  N   UNL     1      13.644  28.887   6.361  0.00  0.00    -0.254 N 
ATOM      5  H   UNL     1      14.312  29.605   6.622  0.00  0.00    +0.158 HD
ATOM      6  O   UNL     1      11.361  28.540   5.965  0.00  0.00    -0.252 OA
ENDROOT
BRANCH   1  10
ATOM      7  C   UNL     1       8.733  33.032   6.427  0.00  0.00    +0.128 A 
ATOM      8  C   UNL     1       9.372  32.646   5.248  0.00  0.00    +0.048 A 
ATOM      9  C   UNL     1      10.516  31.856   5.302  0.00  0.00    +0.027 A 
ATOM     10  C   UNL     1      11.026  31.449   6.535  0.00  0.00    +0.043 A 
ATOM     11  C   UNL     1      10.396  31.828   7.732  0.00  0.00    +0.007 A 
ATOM     12  C   UNL     1      10.895  31.428   8.982  0.00  0.00    +0.010 A 
ATOM     13  C   UNL     1      10.257  31.814  10.161  0.00  0.00    +0.001 A 
ATOM     14  C   UNL     1       9.112  32.604  10.107  0.00  0.00    +0.001 A 
ATOM     15  C   UNL     1       8.603  33.012   8.874  0.00  0.00    +0.012 A 
ATOM     16  C   UNL     1       9.232  32.632   7.677  0.00  0.00    +0.026 A 
BRANCH   7  17
ATOM     17  O   UNL     1       7.613  33.807   6.324  0.00  0.00    -0.490 OA
BRANCH  17  18
ATOM     18  C   UNL     1       6.428  33.168   5.856  0.00  0.00    +0.244 C 
BRANCH  18  19
ATOM     19  C   UNL     1       5.548  34.207   5.180  0.00  0.00    +0.125 C 
BRANCH  19  23
ATOM     20  O   UNL     1       4.231  31.580   2.184  0.00  0.00    -0.377 OA
ATOM     21  C   UNL     1       5.437  32.305   1.940  0.00  0.00    +0.175 C 
ATOM     22  C   UNL     1       6.011  32.836   3.250  0.00  0.00    +0.112 C 
ATOM     23  N   UNL     1       5.023  33.695   3.916  0.00  0.00    -0.295 NA
ATOM     24  C   UNL     1       3.774  32.951   4.133  0.00  0.00    +0.112 C 
ATOM     25  C   UNL     1       3.253  32.416   2.802  0.00  0.00    +0.175 C 
ENDBRANCH  19  23
ENDBRANCH  18  19
ENDBRANCH  17  18
ENDBRANCH   7  17
ENDBRANCH   1  10
BRANCH   4  26
ATOM     26  C   UNL     1      14.159  27.603   6.161  0.00  0.00    +0.130 A 
ATOM     27  C   UNL     1      14.134  26.801   5.046  0.00  0.00    +0.069 A 
ATOM     28  C   UNL     1      14.807  25.629   5.441  0.00  0.00    +0.071 A 
ATOM     29  N   UNL     1      15.227  25.679   6.707  0.00  0.00    -0.169 NA
ATOM     30  N   UNL     1      14.819  26.892   7.117  0.00  0.00    -0.218 N 
BRANCH  30  31
ATOM     31  C   UNL     1      15.090  27.305   8.423  0.00  0.00    +0.067 A 
ATOM     32  C   UNL     1      14.568  28.510   8.896  0.00  0.00    +0.028 A 
ATOM     33  C   UNL     1      14.840  28.923  10.200  0.00  0.00    +0.005 A 
ATOM     34  C   UNL     1      15.634  28.134  11.031  0.00  0.00    -0.050 A 
ATOM     35  C   UNL     1      15.922  28.574  12.426  0.00  0.00    +0.044 C 
ATOM     36  C   UNL     1      16.155  26.929  10.559  0.00  0.00    +0.005 A 
ATOM     37  C   UNL     1      15.884  26.516   9.254  0.00  0.00    +0.028 A 
ENDBRANCH  30  31
BRANCH  28  38
ATOM     38  C   UNL     1      15.067  24.428   4.629  0.00  0.00    +0.006 C 
ATOM     39  C   UNL     1      13.884  23.956   3.704  0.00  0.00    +0.017 C 
ATOM     40  C   UNL     1      16.276  24.619   3.645  0.00  0.00    +0.017 C 
ATOM     41  C   UNL     1      15.401  23.170   5.507  0.00  0.00    +0.017 C 
ENDBRANCH  28  38
ENDBRANCH   4  26
TORSDOF 8
ENDMDL
MODEL 3
REMARK VINA RESULT:     -10.3      2.464      4.283
REMARK  Name = 156422
REMARK  12 active torsions:
REMARK  status: ('A' for Active; 'I' for Inactive)
REMARK    1  A    between atoms: O_2  and  C_20
REMARK    2  A    between atoms: O_2  and  C_23
REMARK    3  A    between atoms: N_4  and  C_13
REMARK    4  A    between atoms: N_5  and  C_22
REMARK    5  A    between atoms: N_7  and  C_21
REMARK    6  A    between atoms: N_8  and  C_26
REMARK    7  A    between atoms: C_9  and  C_12
REMARK    8  A    between atoms: C_9  and  C_16
REMARK    9  A    between atoms: C_9  and  C_17
REMARK   10  A    between atoms: C_9  and  C_18
REMARK   11  A    between atoms: C_13  and  C_20
REMARK   12  A    between atoms: C_36  and  C_39
REMARK                            x       y       z     vdW  Elec       q    Type
REMARK                         _______ _______ _______ _____ _____    ______ ____
ROOT
ATOM      1  N   UNL     1      12.685  30.261   7.202  0.00  0.00    -0.269 N 
ATOM      2  H   UNL     1      13.173  31.123   6.987  0.00  0.00    +0.156 HD
ATOM      3  C   UNL     1      11.276  30.366   7.134  0.00  0.00    +0.309 C 
ATOM      4  N   UNL     1      10.909  31.718   7.046  0.00  0.00    -0.254 N 
ATOM      5  H   UNL     1      11.660  32.400   7.029  0.00  0.00    +0.158 HD
ATOM      6  O   UNL     1      10.505  29.412   7.151  0.00  0.00    -0.252 OA
ENDROOT
BRANCH   1  10
ATOM      7  C   UNL     1      14.996  26.772   7.380  0.00  0.00    +0.128 A 
ATOM      8  C   UNL     1      14.301  27.112   6.219  0.00  0.00    +0.048 A 
ATOM      9  C   UNL     1      13.539  28.276   6.178  0.00  0.00    +0.027 A 
ATOM     10  C   UNL     1      13.469  29.104   7.299  0.00  0.00    +0.043 A 
ATOM     11  C   UNL     1      14.162  28.778   8.476  0.00  0.00    +0.007 A 
ATOM     12  C   UNL     1      14.103  29.599   9.613  0.00  0.00    +0.010 A 
ATOM     13  C   UNL     1      14.797  29.260  10.774  0.00  0.00    +0.001 A 
ATOM     14  C   UNL     1      15.560  28.095  10.815  0.00  0.00    +0.001 A 
ATOM     15  C   UNL     1      15.629  27.267   9.694  0.00  0.00    +0.012 A 
ATOM     16  C   UNL     1      14.937  27.594   8.517  0.00  0.00    +0.026 A 
BRANCH   7  17
ATOM     17  O   UNL     1      15.731  25.621   7.372  0.00  0.00    -0.490 OA
BRANCH  17  18
ATOM     18  C   UNL     1      16.900  25.608   6.557  0.00  0.00    +0.244 C 
BRANCH  18  19
ATOM     19  C   UNL     1      16.817  24.427   5.603  0.00  0.00    +0.125 C 
BRANCH  19  23
ATOM     20  O   UNL     1      14.093  23.739   2.486  0.00  0.00    -0.377 OA
ATOM     21  C   UNL     1      15.010  24.822   2.331  0.00  0.00    +0.175 C 
ATOM     22  C   UNL     1      16.189  24.660   3.286  0.00  0.00    +0.112 C 
ATOM     23  N   UNL     1      15.704  24.593   4.671  0.00  0.00    -0.295 NA
ATOM     24  C   UNL     1      14.736  23.498   4.813  0.00  0.00    +0.112 C 
ATOM     25  C   UNL     1      13.591  23.686   3.822  0.00  0.00    +0.175 C 
ENDBRANCH  19  23
ENDBRANCH  18  19
ENDBRANCH  17  18
ENDBRANCH   7  17
ENDBRANCH   1  10
BRANCH   4  26
ATOM     26  C   UNL     1       9.609  32.223   6.961  0.00  0.00    +0.130 A 
ATOM     27  C   UNL     1       8.781  32.365   5.875  0.00  0.00    +0.069 A 
ATOM     28  C   UNL     1       7.602  32.927   6.401  0.00  0.00    +0.071 A 
ATOM     29  N   UNL     1       7.673  33.128   7.720  0.00  0.00    -0.169 NA
ATOM     30  N   UNL     1       8.904  32.689   8.031  0.00  0.00    -0.218 N 
BRANCH  30  31
ATOM     31  C   UNL     1       9.342  32.743   9.356  0.00  0.00    +0.067 A 
ATOM     32  C   UNL     1       9.423  31.573  10.112  0.00  0.00    +0.028 A 
ATOM     33  C   UNL     1       9.859  31.628  11.436  0.00  0.00    +0.005 A 
ATOM     34  C   UNL     1      10.211  32.852  12.004  0.00  0.00    -0.050 A 
ATOM     35  C   UNL     1      10.679  32.910  13.419  0.00  0.00    +0.044 C 
ATOM     36  C   UNL     1      10.130  34.021  11.248  0.00  0.00    +0.005 A 
ATOM     37  C   UNL     1       9.694  33.967   9.924  0.00  0.00    +0.028 A 
ENDBRANCH  30  31
BRANCH  28  38
ATOM     38  C   UNL     1       6.378  33.291   5.670  0.00  0.00    +0.006 C 
ATOM     39  C   UNL     1       6.139  32.530   4.312  0.00  0.00    +0.017 C 
ATOM     40  C   UNL     1       5.075  33.015   6.503  0.00  0.00    +0.017 C 
ATOM     41  C   UNL     1       6.342  34.810   5.275  0.00  0.00    +0.017 C 
ENDBRANCH  28  38
ENDBRANCH   4  26
TORSDOF 8
ENDMDL
MODEL 4
REMARK VINA RESULT:     -10.3      3.276     10.456
REMARK  Name = 156422
REMARK  12 active torsions:
REMARK  status: ('A' for Active; 'I' for Inactive)
REMARK    1  A    between atoms: O_2  and  C_20
REMARK    2  A    between atoms: O_2  and  C_23
REMARK    3  A    between atoms: N_4  and  C_13
REMARK    4  A    between atoms: N_5  and  C_22
REMARK    5  A    between atoms: N_7  and  C_21
REMARK    6  A    between atoms: N_8  and  C_26
REMARK    7  A    between atoms: C_9  and  C_12
REMARK    8  A    between atoms: C_9  and  C_16
REMARK    9  A    between atoms: C_9  and  C_17
REMARK   10  A    between atoms: C_9  and  C_18
REMARK   11  A    between atoms: C_13  and  C_20
REMARK   12  A    between atoms: C_36  and  C_39
REMARK                            x       y       z     vdW  Elec       q    Type
REMARK                         _______ _______ _______ _____ _____    ______ ____
ROOT
ATOM      1  N   UNL     1      12.119  30.714   6.584  0.00  0.00    -0.269 N 
ATOM      2  H   UNL     1      12.956  31.163   6.939  0.00  0.00    +0.156 HD
ATOM      3  C   UNL     1      12.278  29.334   6.312  0.00  0.00    +0.309 C 
ATOM      4  N   UNL     1      13.640  29.000   6.354  0.00  0.00    -0.254 N 
ATOM      5  H   UNL     1      14.292  29.747   6.575  0.00  0.00    +0.158 HD
ATOM      6  O   UNL     1      11.355  28.561   6.077  0.00  0.00    -0.252 OA
ENDROOT
BRANCH   1  10
ATOM      7  C   UNL     1       8.579  32.951   6.637  0.00  0.00    +0.128 A 
ATOM      8  C   UNL     1       9.160  32.560   5.431  0.00  0.00    +0.048 A 
ATOM      9  C   UNL     1      10.336  31.816   5.433  0.00  0.00    +0.027 A 
ATOM     10  C   UNL     1      10.935  31.460   6.641  0.00  0.00    +0.043 A 
ATOM     11  C   UNL     1      10.364  31.845   7.866  0.00  0.00    +0.007 A 
ATOM     12  C   UNL     1      10.953  31.497   9.091  0.00  0.00    +0.010 A 
ATOM     13  C   UNL     1      10.373  31.887  10.297  0.00  0.00    +0.001 A 
ATOM     14  C   UNL     1       9.196  32.632  10.296  0.00  0.00    +0.001 A 
ATOM     15  C   UNL     1       8.597  32.987   9.087  0.00  0.00    +0.012 A 
ATOM     16  C   UNL     1       9.168  32.602   7.863  0.00  0.00    +0.026 A 
BRANCH   7  17
ATOM     17  O   UNL     1       7.424  33.679   6.585  0.00  0.00    -0.490 OA
BRANCH  17  18
ATOM     18  C   UNL     1       7.530  35.026   6.134  0.00  0.00    +0.244 C 
BRANCH  18  19
ATOM     19  C   UNL     1       6.417  35.843   6.769  0.00  0.00    +0.125 C 
BRANCH  19  23
ATOM     20  O   UNL     1       6.927  38.978   9.512  0.00  0.00    -0.377 OA
ATOM     21  C   UNL     1       6.577  39.326   8.173  0.00  0.00    +0.175 C 
ATOM     22  C   UNL     1       5.992  38.119   7.446  0.00  0.00    +0.112 C 
ATOM     23  N   UNL     1       6.961  37.015   7.452  0.00  0.00    -0.295 NA
ATOM     24  C   UNL     1       7.340  36.685   8.832  0.00  0.00    +0.112 C 
ATOM     25  C   UNL     1       7.893  37.926   9.528  0.00  0.00    +0.175 C 
ENDBRANCH  19  23
ENDBRANCH  18  19
ENDBRANCH  17  18
ENDBRANCH   7  17
ENDBRANCH   1  10
BRANCH   4  26
ATOM     26  C   UNL     1      14.194  27.736   6.138  0.00  0.00    +0.130 A 
ATOM     27  C   UNL     1      14.215  26.958   5.006  0.00  0.00    +0.069 A 
ATOM     28  C   UNL     1      14.911  25.796   5.390  0.00  0.00    +0.071 A 
ATOM     29  N   UNL     1      15.302  25.829   6.666  0.00  0.00    -0.169 NA
ATOM     30  N   UNL     1      14.853  27.022   7.094  0.00  0.00    -0.218 N 
BRANCH  30  31
ATOM     31  C   UNL     1      15.083  27.413   8.414  0.00  0.00    +0.067 A 
ATOM     32  C   UNL     1      15.844  26.604   9.259  0.00  0.00    +0.028 A 
ATOM     33  C   UNL     1      16.073  26.996  10.578  0.00  0.00    +0.005 A 
ATOM     34  C   UNL     1      15.541  28.194  11.053  0.00  0.00    -0.050 A 
ATOM     35  C   UNL     1      15.787  28.613  12.462  0.00  0.00    +0.044 C 
ATOM     36  C   UNL     1      14.781  29.003  10.208  0.00  0.00    +0.005 A 
ATOM     37  C   UNL     1      14.551  28.611   8.888  0.00  0.00    +0.028 A 
ENDBRANCH  30  31
BRANCH  28  38
ATOM     38  C   UNL     1      15.222  24.621   4.559  0.00  0.00    +0.006 C 
ATOM     39  C   UNL     1      16.608  24.657   3.814  0.00  0.00    +0.017 C 
ATOM     40  C   UNL     1      15.265  23.290   5.392  0.00  0.00    +0.017 C 
ATOM     41  C   UNL     1      14.171  24.398   3.415  0.00  0.00    +0.017 C 
ENDBRANCH  28  38
ENDBRANCH   4  26
TORSDOF 8
ENDMDL
MODEL 5
REMARK VINA RESULT:     -10.3      3.371      9.850
REMARK  Name = 156422
REMARK  12 active torsions:
REMARK  status: ('A' for Active; 'I' for Inactive)
REMARK    1  A    between atoms: O_2  and  C_20
REMARK    2  A    between atoms: O_2  and  C_23
REMARK    3  A    between atoms: N_4  and  C_13
REMARK    4  A    between atoms: N_5  and  C_22
REMARK    5  A    between atoms: N_7  and  C_21
REMARK    6  A    between atoms: N_8  and  C_26
REMARK    7  A    between atoms: C_9  and  C_12
REMARK    8  A    between atoms: C_9  and  C_16
REMARK    9  A    between atoms: C_9  and  C_17
REMARK   10  A    between atoms: C_9  and  C_18
REMARK   11  A    between atoms: C_13  and  C_20
REMARK   12  A    between atoms: C_36  and  C_39
REMARK                            x       y       z     vdW  Elec       q    Type
REMARK                         _______ _______ _______ _____ _____    ______ ____
ROOT
ATOM      1  N   UNL     1      12.187  30.714   6.418  0.00  0.00    -0.269 N 
ATOM      2  H   UNL     1      13.047  31.166   6.706  0.00  0.00    +0.156 HD
ATOM      3  C   UNL     1      12.310  29.319   6.217  0.00  0.00    +0.309 C 
ATOM      4  N   UNL     1      13.668  28.963   6.211  0.00  0.00    -0.254 N 
ATOM      5  H   UNL     1      14.341  29.708   6.358  0.00  0.00    +0.158 HD
ATOM      6  O   UNL     1      11.365  28.551   6.071  0.00  0.00    -0.252 OA
ENDROOT
BRANCH   1  10
ATOM      7  C   UNL     1       8.699  33.030   6.518  0.00  0.00    +0.128 A 
ATOM      8  C   UNL     1       9.310  32.710   5.306  0.00  0.00    +0.048 A 
ATOM      9  C   UNL     1      10.469  31.939   5.292  0.00  0.00    +0.027 A 
ATOM     10  C   UNL     1      11.019  31.484   6.491  0.00  0.00    +0.043 A 
ATOM     11  C   UNL     1      10.417  31.797   7.721  0.00  0.00    +0.007 A 
ATOM     12  C   UNL     1      10.957  31.349   8.937  0.00  0.00    +0.010 A 
ATOM     13  C   UNL     1      10.346  31.669  10.149  0.00  0.00    +0.001 A 
ATOM     14  C   UNL     1       9.187  32.441  10.163  0.00  0.00    +0.001 A 
ATOM     15  C   UNL     1       8.637  32.895   8.964  0.00  0.00    +0.012 A 
ATOM     16  C   UNL     1       9.239  32.582   7.735  0.00  0.00    +0.026 A 
BRANCH   7  17
ATOM     17  O   UNL     1       7.563  33.789   6.481  0.00  0.00    -0.490 OA
BRANCH  17  18
ATOM     18  C   UNL     1       6.383  33.160   5.989  0.00  0.00    +0.244 C 
BRANCH  18  19
ATOM     19  C   UNL     1       5.201  33.614   6.830  0.00  0.00    +0.125 C 
BRANCH  19  23
ATOM     20  O   UNL     1       4.408  37.021   4.511  0.00  0.00    -0.377 OA
ATOM     21  C   UNL     1       4.276  37.143   5.927  0.00  0.00    +0.175 C 
ATOM     22  C   UNL     1       5.018  36.011   6.630  0.00  0.00    +0.112 C 
ATOM     23  N   UNL     1       4.496  34.715   6.177  0.00  0.00    -0.295 NA
ATOM     24  C   UNL     1       4.605  34.611   4.716  0.00  0.00    +0.112 C 
ATOM     25  C   UNL     1       3.874  35.777   4.057  0.00  0.00    +0.175 C 
ENDBRANCH  19  23
ENDBRANCH  18  19
ENDBRANCH  17  18
ENDBRANCH   7  17
ENDBRANCH   1  10
BRANCH   4  26
ATOM     26  C   UNL     1      14.190  27.679   6.040  0.00  0.00    +0.130 A 
ATOM     27  C   UNL     1      14.204  26.867   4.932  0.00  0.00    +0.069 A 
ATOM     28  C   UNL     1      14.864  25.699   5.359  0.00  0.00    +0.071 A 
ATOM     29  N   UNL     1      15.241  25.760   6.639  0.00  0.00    -0.169 NA
ATOM     30  N   UNL     1      14.818  26.976   7.025  0.00  0.00    -0.218 N 
BRANCH  30  31
ATOM     31  C   UNL     1      15.044  27.401   8.335  0.00  0.00    +0.067 A 
ATOM     32  C   UNL     1      15.822  26.626   9.196  0.00  0.00    +0.028 A 
ATOM     33  C   UNL     1      16.045  27.051  10.506  0.00  0.00    +0.005 A 
ATOM     34  C   UNL     1      15.491  28.249  10.955  0.00  0.00    -0.050 A 
ATOM     35  C   UNL     1      15.732  28.703  12.354  0.00  0.00    +0.044 C 
ATOM     36  C   UNL     1      14.714  29.024  10.094  0.00  0.00    +0.005 A 
ATOM     37  C   UNL     1      14.489  28.599   8.784  0.00  0.00    +0.028 A 
ENDBRANCH  30  31
BRANCH  28  38
ATOM     38  C   UNL     1      15.154  24.492   4.568  0.00  0.00    +0.006 C 
ATOM     39  C   UNL     1      14.063  24.091   3.506  0.00  0.00    +0.017 C 
ATOM     40  C   UNL     1      16.477  24.624   3.733  0.00  0.00    +0.017 C 
ATOM     41  C   UNL     1      15.316  23.211   5.461  0.00  0.00    +0.017 C 
ENDBRANCH  28  38
ENDBRANCH   4  26
TORSDOF 8
ENDMDL
MODEL 6
REMARK VINA RESULT:     -10.1      1.715      2.435
REMARK  Name = 156422
REMARK  12 active torsions:
REMARK  status: ('A' for Active; 'I' for Inactive)
REMARK    1  A    between atoms: O_2  and  C_20
REMARK    2  A    between atoms: O_2  and  C_23
REMARK    3  A    between atoms: N_4  and  C_13
REMARK    4  A    between atoms: N_5  and  C_22
REMARK    5  A    between atoms: N_7  and  C_21
REMARK    6  A    between atoms: N_8  and  C_26
REMARK    7  A    between atoms: C_9  and  C_12
REMARK    8  A    between atoms: C_9  and  C_16
REMARK    9  A    between atoms: C_9  and  C_17
REMARK   10  A    between atoms: C_9  and  C_18
REMARK   11  A    between atoms: C_13  and  C_20
REMARK   12  A    between atoms: C_36  and  C_39
REMARK                            x       y       z     vdW  Elec       q    Type
REMARK                         _______ _______ _______ _____ _____    ______ ____
ROOT
ATOM      1  N   UNL     1      13.356  29.362   6.932  0.00  0.00    -0.269 N 
ATOM      2  H   UNL     1      13.950  30.144   7.183  0.00  0.00    +0.156 HD
ATOM      3  C   UNL     1      11.985  29.691   6.823  0.00  0.00    +0.309 C 
ATOM      4  N   UNL     1      11.765  30.971   7.356  0.00  0.00    -0.254 N 
ATOM      5  H   UNL     1      12.575  31.466   7.715  0.00  0.00    +0.158 HD
ATOM      6  O   UNL     1      11.130  28.960   6.334  0.00  0.00    -0.252 OA
ENDROOT
BRANCH   1  10
ATOM      7  C   UNL     1      15.249  25.867   5.610  0.00  0.00    +0.128 A 
ATOM      8  C   UNL     1      14.479  26.636   4.739  0.00  0.00    +0.048 A 
ATOM      9  C   UNL     1      13.858  27.795   5.196  0.00  0.00    +0.027 A 
ATOM     10  C   UNL     1      14.006  28.188   6.526  0.00  0.00    +0.043 A 
ATOM     11  C   UNL     1      14.778  27.426   7.418  0.00  0.00    +0.007 A 
ATOM     12  C   UNL     1      14.937  27.806   8.760  0.00  0.00    +0.010 A 
ATOM     13  C   UNL     1      15.707  27.037   9.631  0.00  0.00    +0.001 A 
ATOM     14  C   UNL     1      16.328  25.877   9.174  0.00  0.00    +0.001 A 
ATOM     15  C   UNL     1      16.180  25.484   7.844  0.00  0.00    +0.012 A 
ATOM     16  C   UNL     1      15.409  26.247   6.953  0.00  0.00    +0.026 A 
BRANCH   7  17
ATOM     17  O   UNL     1      15.840  24.738   5.116  0.00  0.00    -0.490 OA
BRANCH  17  18
ATOM     18  C   UNL     1      15.650  24.466   3.730  0.00  0.00    +0.244 C 
BRANCH  18  19
ATOM     19  C   UNL     1      14.346  23.704   3.558  0.00  0.00    +0.125 C 
BRANCH  19  23
ATOM     20  O   UNL     1      13.890  23.732  -0.614  0.00  0.00    -0.377 OA
ATOM     21  C   UNL     1      14.086  24.988   0.035  0.00  0.00    +0.175 C 
ATOM     22  C   UNL     1      14.679  24.782   1.426  0.00  0.00    +0.112 C 
ATOM     23  N   UNL     1      13.791  23.925   2.224  0.00  0.00    -0.295 NA
ATOM     24  C   UNL     1      13.569  22.648   1.533  0.00  0.00    +0.112 C 
ATOM     25  C   UNL     1      13.003  22.904   0.139  0.00  0.00    +0.175 C 
ENDBRANCH  19  23
ENDBRANCH  18  19
ENDBRANCH  17  18
ENDBRANCH   7  17
ENDBRANCH   1  10
BRANCH   4  26
ATOM     26  C   UNL     1      10.542  31.642   7.429  0.00  0.00    +0.130 A 
ATOM     27  C   UNL     1       9.692  32.047   6.430  0.00  0.00    +0.069 A 
ATOM     28  C   UNL     1       8.624  32.669   7.107  0.00  0.00    +0.071 A 
ATOM     29  N   UNL     1       8.782  32.661   8.433  0.00  0.00    -0.169 NA
ATOM     30  N   UNL     1       9.957  32.030   8.598  0.00  0.00    -0.218 N 
BRANCH  30  31
ATOM     31  C   UNL     1      10.458  31.831   9.885  0.00  0.00    +0.067 A 
ATOM     32  C   UNL     1      10.033  32.648  10.934  0.00  0.00    +0.028 A 
ATOM     33  C   UNL     1      10.536  32.450  12.220  0.00  0.00    +0.005 A 
ATOM     34  C   UNL     1      11.463  31.437  12.458  0.00  0.00    -0.050 A 
ATOM     35  C   UNL     1      11.999  31.223  13.833  0.00  0.00    +0.044 C 
ATOM     36  C   UNL     1      11.888  30.619  11.410  0.00  0.00    +0.005 A 
ATOM     37  C   UNL     1      11.386  30.817  10.124  0.00  0.00    +0.028 A 
ENDBRANCH  30  31
BRANCH  28  38
ATOM     38  C   UNL     1       7.427  33.289   6.516  0.00  0.00    +0.006 C 
ATOM     39  C   UNL     1       6.139  33.290   7.420  0.00  0.00    +0.017 C 
ATOM     40  C   UNL     1       7.649  34.801   6.155  0.00  0.00    +0.017 C 
ATOM     41  C   UNL     1       6.972  32.577   5.193  0.00  0.00    +0.017 C 
ENDBRANCH  28  38
ENDBRANCH   4  26
TORSDOF 8
ENDMDL
MODEL 7
REMARK VINA RESULT:     -10.1      3.160      9.710
REMARK  Name = 156422
REMARK  12 active torsions:
REMARK  status: ('A' for Active; 'I' for Inactive)
REMARK    1  A    between atoms: O_2  and  C_20
REMARK    2  A    between atoms: O_2  and  C_23
REMARK    3  A    between atoms: N_4  and  C_13
REMARK    4  A    between atoms: N_5  and  C_22
REMARK    5  A    between atoms: N_7  and  C_21
REMARK    6  A    between atoms: N_8  and  C_26
REMARK    7  A    between atoms: C_9  and  C_12
REMARK    8  A    between atoms: C_9  and  C_16
REMARK    9  A    between atoms: C_9  and  C_17
REMARK   10  A    between atoms: C_9  and  C_18
REMARK   11  A    between atoms: C_13  and  C_20
REMARK   12  A    between atoms: C_36  and  C_39
REMARK                            x       y       z     vdW  Elec       q    Type
REMARK                         _______ _______ _______ _____ _____    ______ ____
ROOT
ATOM      1  N   UNL     1      12.098  30.773   6.566  0.00  0.00    -0.269 N 
ATOM      2  H   UNL     1      12.917  31.186   6.997  0.00  0.00    +0.156 HD
ATOM      3  C   UNL     1      12.243  29.401   6.250  0.00  0.00    +0.309 C 
ATOM      4  N   UNL     1      13.591  29.031   6.375  0.00  0.00    -0.254 N 
ATOM      5  H   UNL     1      14.242  29.750   6.671  0.00  0.00    +0.158 HD
ATOM      6  O   UNL     1      11.321  28.662   5.920  0.00  0.00    -0.252 OA
ENDROOT
BRANCH   1  10
ATOM      7  C   UNL     1       8.612  33.093   6.459  0.00  0.00    +0.128 A 
ATOM      8  C   UNL     1       9.238  32.687   5.280  0.00  0.00    +0.048 A 
ATOM      9  C   UNL     1      10.395  31.915   5.336  0.00  0.00    +0.027 A 
ATOM     10  C   UNL     1      10.930  31.547   6.570  0.00  0.00    +0.043 A 
ATOM     11  C   UNL     1      10.314  31.948   7.767  0.00  0.00    +0.007 A 
ATOM     12  C   UNL     1      10.839  31.587   9.018  0.00  0.00    +0.010 A 
ATOM     13  C   UNL     1      10.214  31.993  10.197  0.00  0.00    +0.001 A 
ATOM     14  C   UNL     1       9.056  32.765  10.142  0.00  0.00    +0.001 A 
ATOM     15  C   UNL     1       8.521  33.133   8.907  0.00  0.00    +0.012 A 
ATOM     16  C   UNL     1       9.137  32.732   7.711  0.00  0.00    +0.026 A 
BRANCH   7  17
ATOM     17  O   UNL     1       7.478  33.848   6.355  0.00  0.00    -0.490 OA
BRANCH  17  18
ATOM     18  C   UNL     1       6.340  33.224   5.767  0.00  0.00    +0.244 C 
BRANCH  18  19
ATOM     19  C   UNL     1       5.100  33.641   6.541  0.00  0.00    +0.125 C 
BRANCH  19  23
ATOM     20  O   UNL     1       2.739  31.280   9.083  0.00  0.00    -0.377 OA
ATOM     21  C   UNL     1       4.156  31.191   9.230  0.00  0.00    +0.175 C 
ATOM     22  C   UNL     1       4.834  32.400   8.592  0.00  0.00    +0.112 C 
ATOM     23  N   UNL     1       4.471  32.483   7.171  0.00  0.00    -0.295 NA
ATOM     24  C   UNL     1       3.010  32.541   7.027  0.00  0.00    +0.112 C 
ATOM     25  C   UNL     1       2.374  31.329   7.703  0.00  0.00    +0.175 C 
ENDBRANCH  19  23
ENDBRANCH  18  19
ENDBRANCH  17  18
ENDBRANCH   7  17
ENDBRANCH   1  10
BRANCH   4  26
ATOM     26  C   UNL     1      14.129  27.762   6.148  0.00  0.00    +0.130 A 
ATOM     27  C   UNL     1      14.126  26.987   5.014  0.00  0.00    +0.069 A 
ATOM     28  C   UNL     1      14.816  25.817   5.385  0.00  0.00    +0.071 A 
ATOM     29  N   UNL     1      15.226  25.842   6.655  0.00  0.00    -0.169 NA
ATOM     30  N   UNL     1      14.794  27.038   7.092  0.00  0.00    -0.218 N 
BRANCH  30  31
ATOM     31  C   UNL     1      15.046  27.423   8.410  0.00  0.00    +0.067 A 
ATOM     32  C   UNL     1      15.798  26.597   9.247  0.00  0.00    +0.028 A 
ATOM     33  C   UNL     1      16.048  26.982  10.564  0.00  0.00    +0.005 A 
ATOM     34  C   UNL     1      15.548  28.191  11.045  0.00  0.00    -0.050 A 
ATOM     35  C   UNL     1      15.818  28.604  12.452  0.00  0.00    +0.044 C 
ATOM     36  C   UNL     1      14.798  29.018  10.208  0.00  0.00    +0.005 A 
ATOM     37  C   UNL     1      14.546  28.633   8.891  0.00  0.00    +0.028 A 
ENDBRANCH  30  31
BRANCH  28  38
ATOM     38  C   UNL     1      15.104  24.642   4.546  0.00  0.00    +0.006 C 
ATOM     39  C   UNL     1      16.463  24.683   3.751  0.00  0.00    +0.017 C 
ATOM     40  C   UNL     1      15.185  23.313   5.380  0.00  0.00    +0.017 C 
ATOM     41  C   UNL     1      14.014  24.409   3.441  0.00  0.00    +0.017 C 
ENDBRANCH  28  38
ENDBRANCH   4  26
TORSDOF 8
ENDMDL
MODEL 8
REMARK VINA RESULT:      -9.9      1.560      2.293
REMARK  Name = 156422
REMARK  12 active torsions:
REMARK  status: ('A' for Active; 'I' for Inactive)
REMARK    1  A    between atoms: O_2  and  C_20
REMARK    2  A    between atoms: O_2  and  C_23
REMARK    3  A    between atoms: N_4  and  C_13
REMARK    4  A    between atoms: N_5  and  C_22
REMARK    5  A    between atoms: N_7  and  C_21
REMARK    6  A    between atoms: N_8  and  C_26
REMARK    7  A    between atoms: C_9  and  C_12
REMARK    8  A    between atoms: C_9  and  C_16
REMARK    9  A    between atoms: C_9  and  C_17
REMARK   10  A    between atoms: C_9  and  C_18
REMARK   11  A    between atoms: C_13  and  C_20
REMARK   12  A    between atoms: C_36  and  C_39
REMARK                            x       y       z     vdW  Elec       q    Type
REMARK                         _______ _______ _______ _____ _____    ______ ____
ROOT
ATOM      1  N   UNL     1      13.424  29.510   7.594  0.00  0.00    -0.269 N 
ATOM      2  H   UNL     1      13.918  30.396   7.585  0.00  0.00    +0.156 HD
ATOM      3  C   UNL     1      12.094  29.599   8.068  0.00  0.00    +0.309 C 
ATOM      4  N   UNL     1      11.888  30.855   8.658  0.00  0.00    -0.254 N 
ATOM      5  H   UNL     1      12.671  31.501   8.654  0.00  0.00    +0.158 HD
ATOM      6  O   UNL     1      11.260  28.704   7.971  0.00  0.00    -0.252 OA
ENDROOT
BRANCH   1  10
ATOM      7  C   UNL     1      15.235  26.336   5.547  0.00  0.00    +0.128 A 
ATOM      8  C   UNL     1      14.416  27.246   4.877  0.00  0.00    +0.048 A 
ATOM      9  C   UNL     1      13.824  28.295   5.574  0.00  0.00    +0.027 A 
ATOM     10  C   UNL     1      14.048  28.438   6.944  0.00  0.00    +0.043 A 
ATOM     11  C   UNL     1      14.870  27.532   7.634  0.00  0.00    +0.007 A 
ATOM     12  C   UNL     1      15.106  27.660   9.012  0.00  0.00    +0.010 A 
ATOM     13  C   UNL     1      15.924  26.751   9.682  0.00  0.00    +0.001 A 
ATOM     14  C   UNL     1      16.517  25.702   8.985  0.00  0.00    +0.001 A 
ATOM     15  C   UNL     1      16.293  25.558   7.616  0.00  0.00    +0.012 A 
ATOM     16  C   UNL     1      15.472  26.465   6.925  0.00  0.00    +0.026 A 
BRANCH   7  17
ATOM     17  O   UNL     1      15.796  25.324   4.821  0.00  0.00    -0.490 OA
BRANCH  17  18
ATOM     18  C   UNL     1      15.470  25.268   3.435  0.00  0.00    +0.244 C 
BRANCH  18  19
ATOM     19  C   UNL     1      14.377  24.231   3.233  0.00  0.00    +0.125 C 
BRANCH  19  23
ATOM     20  O   UNL     1      12.743  23.386  -0.539  0.00  0.00    -0.377 OA
ATOM     21  C   UNL     1      13.343  22.306   0.175  0.00  0.00    +0.175 C 
ATOM     22  C   UNL     1      13.464  22.650   1.656  0.00  0.00    +0.112 C 
ATOM     23  N   UNL     1      14.257  23.876   1.820  0.00  0.00    -0.295 NA
ATOM     24  C   UNL     1      13.650  24.974   1.056  0.00  0.00    +0.112 C 
ATOM     25  C   UNL     1      13.524  24.575  -0.412  0.00  0.00    +0.175 C 
ENDBRANCH  19  23
ENDBRANCH  18  19
ENDBRANCH  17  18
ENDBRANCH   7  17
ENDBRANCH   1  10
BRANCH   4  26
ATOM     26  C   UNL     1      10.704  31.317   9.239  0.00  0.00    +0.130 A 
ATOM     27  C   UNL     1       9.507  31.661   8.661  0.00  0.00    +0.069 A 
ATOM     28  C   UNL     1       8.692  32.049   9.742  0.00  0.00    +0.071 A 
ATOM     29  N   UNL     1       9.320  31.960  10.917  0.00  0.00    -0.169 NA
ATOM     30  N   UNL     1      10.541  31.511  10.579  0.00  0.00    -0.218 N 
BRANCH  30  31
ATOM     31  C   UNL     1      11.495  31.290  11.574  0.00  0.00    +0.067 A 
ATOM     32  C   UNL     1      12.652  30.567  11.283  0.00  0.00    +0.028 A 
ATOM     33  C   UNL     1      13.604  30.345  12.278  0.00  0.00    +0.005 A 
ATOM     34  C   UNL     1      13.399  30.846  13.563  0.00  0.00    -0.050 A 
ATOM     35  C   UNL     1      14.418  30.611  14.626  0.00  0.00    +0.044 C 
ATOM     36  C   UNL     1      12.243  31.570  13.854  0.00  0.00    +0.005 A 
ATOM     37  C   UNL     1      11.290  31.791  12.859  0.00  0.00    +0.028 A 
ENDBRANCH  30  31
BRANCH  28  38
ATOM     38  C   UNL     1       7.298  32.518   9.690  0.00  0.00    +0.006 C 
ATOM     39  C   UNL     1       6.227  31.438   9.281  0.00  0.00    +0.017 C 
ATOM     40  C   UNL     1       6.793  33.057  11.076  0.00  0.00    +0.017 C 
ATOM     41  C   UNL     1       7.091  33.681   8.656  0.00  0.00    +0.017 C 
ENDBRANCH  28  38
ENDBRANCH   4  26
TORSDOF 8
ENDMDL
MODEL 9
REMARK VINA RESULT:      -9.7      1.886      2.631
REMARK  Name = 156422
REMARK  12 active torsions:
REMARK  status: ('A' for Active; 'I' for Inactive)
REMARK    1  A    between atoms: O_2  and  C_20
REMARK    2  A    between atoms: O_2  and  C_23
REMARK    3  A    between atoms: N_4  and  C_13
REMARK    4  A    between atoms: N_5  and  C_22
REMARK    5  A    between atoms: N_7  and  C_21
REMARK    6  A    between atoms: N_8  and  C_26
REMARK    7  A    between atoms: C_9  and  C_12
REMARK    8  A    between atoms: C_9  and  C_16
REMARK    9  A    between atoms: C_9  and  C_17
REMARK   10  A    between atoms: C_9  and  C_18
REMARK   11  A    between atoms: C_13  and  C_20
REMARK   12  A    between atoms: C_36  and  C_39
REMARK                            x       y       z     vdW  Elec       q    Type
REMARK                         _______ _______ _______ _____ _____    ______ ____
ROOT
ATOM      1  N   UNL     1      13.319  29.701   8.195  0.00  0.00    -0.269 N 
ATOM      2  H   UNL     1      13.970  30.475   8.133  0.00  0.00    +0.156 HD
ATOM      3  C   UNL     1      12.111  30.018   8.860  0.00  0.00    +0.309 C 
ATOM      4  N   UNL     1      12.239  31.260   9.501  0.00  0.00    -0.254 N 
ATOM      5  H   UNL     1      13.125  31.744   9.396  0.00  0.00    +0.158 HD
ATOM      6  O   UNL     1      11.112  29.305   8.866  0.00  0.00    -0.252 OA
ENDROOT
BRANCH   1  10
ATOM      7  C   UNL     1      14.152  26.335   5.846  0.00  0.00    +0.128 A 
ATOM      8  C   UNL     1      13.264  27.315   5.402  0.00  0.00    +0.048 A 
ATOM      9  C   UNL     1      13.000  28.427   6.196  0.00  0.00    +0.027 A 
ATOM     10  C   UNL     1      13.623  28.563   7.437  0.00  0.00    +0.043 A 
ATOM     11  C   UNL     1      14.520  27.586   7.900  0.00  0.00    +0.007 A 
ATOM     12  C   UNL     1      15.156  27.705   9.145  0.00  0.00    +0.010 A 
ATOM     13  C   UNL     1      16.043  26.726   9.589  0.00  0.00    +0.001 A 
ATOM     14  C   UNL     1      16.307  25.613   8.795  0.00  0.00    +0.001 A 
ATOM     15  C   UNL     1      15.684  25.477   7.554  0.00  0.00    +0.012 A 
ATOM     16  C   UNL     1      14.788  26.455   7.092  0.00  0.00    +0.026 A 
BRANCH   7  17
ATOM     17  O   UNL     1      14.380  25.262   5.031  0.00  0.00    -0.490 OA
BRANCH  17  18
ATOM     18  C   UNL     1      13.386  24.973   4.052  0.00  0.00    +0.244 C 
BRANCH  18  19
ATOM     19  C   UNL     1      13.610  23.562   3.532  0.00  0.00    +0.125 C 
BRANCH  19  23
ATOM     20  O   UNL     1      13.443  23.854  -0.651  0.00  0.00    -0.377 OA
ATOM     21  C   UNL     1      13.748  22.576  -0.093  0.00  0.00    +0.175 C 
ATOM     22  C   UNL     1      13.328  22.523   1.373  0.00  0.00    +0.112 C 
ATOM     23  N   UNL     1      14.007  23.587   2.126  0.00  0.00    -0.295 NA
ATOM     24  C   UNL     1      13.714  24.895   1.524  0.00  0.00    +0.112 C 
ATOM     25  C   UNL     1      14.124  24.892   0.054  0.00  0.00    +0.175 C 
ENDBRANCH  19  23
ENDBRANCH  18  19
ENDBRANCH  17  18
ENDBRANCH   7  17
ENDBRANCH   1  10
BRANCH   4  26
ATOM     26  C   UNL     1      11.262  31.910  10.259  0.00  0.00    +0.130 A 
ATOM     27  C   UNL     1      10.310  32.825   9.882  0.00  0.00    +0.069 A 
ATOM     28  C   UNL     1       9.615  33.121  11.070  0.00  0.00    +0.071 A 
ATOM     29  N   UNL     1      10.086  32.447  12.122  0.00  0.00    -0.169 NA
ATOM     30  N   UNL     1      11.086  31.719  11.597  0.00  0.00    -0.218 N 
BRANCH  30  31
ATOM     31  C   UNL     1      11.827  30.869  12.420  0.00  0.00    +0.067 A 
ATOM     32  C   UNL     1      11.187  30.126  13.413  0.00  0.00    +0.028 A 
ATOM     33  C   UNL     1      11.928  29.279  14.237  0.00  0.00    +0.005 A 
ATOM     34  C   UNL     1      13.308  29.174  14.068  0.00  0.00    -0.050 A 
ATOM     35  C   UNL     1      14.100  28.267  14.947  0.00  0.00    +0.044 C 
ATOM     36  C   UNL     1      13.948  29.916  13.075  0.00  0.00    +0.005 A 
ATOM     37  C   UNL     1      13.207  30.764  12.252  0.00  0.00    +0.028 A 
ENDBRANCH  30  31
BRANCH  28  38
ATOM     38  C   UNL     1       8.487  34.051  11.242  0.00  0.00    +0.006 C 
ATOM     39  C   UNL     1       8.844  35.455  11.858  0.00  0.00    +0.017 C 
ATOM     40  C   UNL     1       7.778  34.394   9.883  0.00  0.00    +0.017 C 
ATOM     41  C   UNL     1       7.376  33.480  12.193  0.00  0.00    +0.017 C 
ENDBRANCH  28  38
ENDBRANCH   4  26
TORSDOF 8
ENDMDL
MODEL 10
REMARK VINA RESULT:      -9.5      2.891      5.270
REMARK  Name = 156422
REMARK  12 active torsions:
REMARK  status: ('A' for Active; 'I' for Inactive)
REMARK    1  A    between atoms: O_2  and  C_20
REMARK    2  A    between atoms: O_2  and  C_23
REMARK    3  A    between atoms: N_4  and  C_13
REMARK    4  A    between atoms: N_5  and  C_22
REMARK    5  A    between atoms: N_7  and  C_21
REMARK    6  A    between atoms: N_8  and  C_26
REMARK    7  A    between atoms: C_9  and  C_12
REMARK    8  A    between atoms: C_9  and  C_16
REMARK    9  A    between atoms: C_9  and  C_17
REMARK   10  A    between atoms: C_9  and  C_18
REMARK   11  A    between atoms: C_13  and  C_20
REMARK   12  A    between atoms: C_36  and  C_39
REMARK                            x       y       z     vdW  Elec       q    Type
REMARK                         _______ _______ _______ _____ _____    ______ ____
ROOT
ATOM      1  N   UNL     1      12.835  31.099   9.570  0.00  0.00    -0.269 N 
ATOM      2  H   UNL     1      13.309  31.995   9.547  0.00  0.00    +0.156 HD
ATOM      3  C   UNL     1      11.430  31.188   9.437  0.00  0.00    +0.309 C 
ATOM      4  N   UNL     1      11.028  32.525   9.576  0.00  0.00    -0.254 N 
ATOM      5  H   UNL     1      11.759  33.213   9.731  0.00  0.00    +0.158 HD
ATOM      6  O   UNL     1      10.689  30.232   9.230  0.00  0.00    -0.252 OA
ENDROOT
BRANCH   1  10
ATOM      7  C   UNL     1      15.227  27.675   9.246  0.00  0.00    +0.128 A 
ATOM      8  C   UNL     1      14.499  28.145   8.153  0.00  0.00    +0.048 A 
ATOM      9  C   UNL     1      13.710  29.285   8.279  0.00  0.00    +0.027 A 
ATOM     10  C   UNL     1      13.647  29.959   9.499  0.00  0.00    +0.043 A 
ATOM     11  C   UNL     1      14.374  29.500  10.610  0.00  0.00    +0.007 A 
ATOM     12  C   UNL     1      14.322  30.164  11.846  0.00  0.00    +0.010 A 
ATOM     13  C   UNL     1      15.049  29.695  12.939  0.00  0.00    +0.001 A 
ATOM     14  C   UNL     1      15.838  28.554  12.812  0.00  0.00    +0.001 A 
ATOM     15  C   UNL     1      15.901  27.881  11.593  0.00  0.00    +0.012 A 
ATOM     16  C   UNL     1      15.176  28.341  10.482  0.00  0.00    +0.026 A 
BRANCH   7  17
ATOM     17  O   UNL     1      15.988  26.554   9.073  0.00  0.00    -0.490 OA
BRANCH  17  18
ATOM     18  C   UNL     1      15.533  25.608   8.109  0.00  0.00    +0.244 C 
BRANCH  18  19
ATOM     19  C   UNL     1      16.653  25.348   7.115  0.00  0.00    +0.125 C 
BRANCH  19  23
ATOM     20  O   UNL     1      15.453  25.579   3.100  0.00  0.00    -0.377 OA
ATOM     21  C   UNL     1      14.428  25.470   4.088  0.00  0.00    +0.175 C 
ATOM     22  C   UNL     1      14.971  25.854   5.461  0.00  0.00    +0.112 C 
ATOM     23  N   UNL     1      16.110  24.991   5.806  0.00  0.00    -0.295 NA
ATOM     24  C   UNL     1      17.145  25.084   4.768  0.00  0.00    +0.112 C 
ATOM     25  C   UNL     1      16.551  24.720   3.410  0.00  0.00    +0.175 C 
ENDBRANCH  19  23
ENDBRANCH  18  19
ENDBRANCH  17  18
ENDBRANCH   7  17
ENDBRANCH   1  10
BRANCH   4  26
ATOM     26  C   UNL     1       9.721  33.012   9.507  0.00  0.00    +0.130 A 
ATOM     27  C   UNL     1       8.931  33.282   8.417  0.00  0.00    +0.069 A 
ATOM     28  C   UNL     1       7.720  33.747   8.965  0.00  0.00    +0.071 A 
ATOM     29  N   UNL     1       7.736  33.772  10.300  0.00  0.00    -0.169 NA
ATOM     30  N   UNL     1       8.965  33.318  10.600  0.00  0.00    -0.218 N 
BRANCH  30  31
ATOM     31  C   UNL     1       9.351  33.204  11.936  0.00  0.00    +0.067 A 
ATOM     32  C   UNL     1       9.443  31.944  12.531  0.00  0.00    +0.028 A 
ATOM     33  C   UNL     1       9.827  31.831  13.867  0.00  0.00    +0.005 A 
ATOM     34  C   UNL     1      10.118  32.974  14.609  0.00  0.00    -0.050 A 
ATOM     35  C   UNL     1      10.531  32.853  16.036  0.00  0.00    +0.044 C 
ATOM     36  C   UNL     1      10.028  34.234  14.015  0.00  0.00    +0.005 A 
ATOM     37  C   UNL     1       9.643  34.348  12.679  0.00  0.00    +0.028 A 
ENDBRANCH  30  31
BRANCH  28  38
ATOM     38  C   UNL     1       6.515  34.182   8.239  0.00  0.00    +0.006 C 
ATOM     39  C   UNL     1       6.647  35.531   7.439  0.00  0.00    +0.017 C 
ATOM     40  C   UNL     1       6.052  33.137   7.162  0.00  0.00    +0.017 C 
ATOM     41  C   UNL     1       5.289  34.413   9.192  0.00  0.00    +0.017 C 
ENDBRANCH  28  38
ENDBRANCH   4  26
TORSDOF 8
ENDMDL
MODEL 11
REMARK VINA RESULT:      -9.3      5.201     12.048
REMARK  Name = 156422
REMARK  12 active torsions:
REMARK  status: ('A' for Active; 'I' for Inactive)
REMARK    1  A    between atoms: O_2  and  C_20
REMARK    2  A    between atoms: O_2  and  C_23
REMARK    3  A    between atoms: N_4  and  C_13
REMARK    4  A    between atoms: N_5  and  C_22
REMARK    5  A    between atoms: N_7  and  C_21
REMARK    6  A    between atoms: N_8  and  C_26
REMARK    7  A    between atoms: C_9  and  C_12
REMARK    8  A    between atoms: C_9  and  C_16
REMARK    9  A    between atoms: C_9  and  C_17
REMARK   10  A    between atoms: C_9  and  C_18
REMARK   11  A    between atoms: C_13  and  C_20
REMARK   12  A    between atoms: C_36  and  C_39
REMARK                            x       y       z     vdW  Elec       q    Type
REMARK                         _______ _______ _______ _____ _____    ______ ____
ROOT
ATOM      1  N   UNL     1      13.924  30.311  12.451  0.00  0.00    -0.269 N 
ATOM      2  H   UNL     1      14.656  29.912  11.873  0.00  0.00    +0.156 HD
ATOM      3  C   UNL     1      12.735  30.614  11.748  0.00  0.00    +0.309 C 
ATOM      4  N   UNL     1      12.972  30.529  10.367  0.00  0.00    -0.254 N 
ATOM      5  H   UNL     1      13.907  30.263  10.074  0.00  0.00    +0.158 HD
ATOM      6  O   UNL     1      11.668  30.904  12.278  0.00  0.00    -0.252 OA
ENDROOT
BRANCH   1  10
ATOM      7  C   UNL     1      14.558  30.332  16.592  0.00  0.00    +0.128 A 
ATOM      8  C   UNL     1      14.482  31.525  15.874  0.00  0.00    +0.048 A 
ATOM      9  C   UNL     1      14.270  31.499  14.498  0.00  0.00    +0.027 A 
ATOM     10  C   UNL     1      14.133  30.278  13.836  0.00  0.00    +0.043 A 
ATOM     11  C   UNL     1      14.207  29.067  14.544  0.00  0.00    +0.007 A 
ATOM     12  C   UNL     1      14.072  27.830  13.894  0.00  0.00    +0.010 A 
ATOM     13  C   UNL     1      14.148  26.636  14.611  0.00  0.00    +0.001 A 
ATOM     14  C   UNL     1      14.360  26.663  15.988  0.00  0.00    +0.001 A 
ATOM     15  C   UNL     1      14.496  27.883  16.649  0.00  0.00    +0.012 A 
ATOM     16  C   UNL     1      14.422  29.094  15.942  0.00  0.00    +0.026 A 
BRANCH   7  17
ATOM     17  O   UNL     1      14.765  30.408  17.940  0.00  0.00    -0.490 OA
BRANCH  17  18
ATOM     18  C   UNL     1      15.985  31.004  18.372  0.00  0.00    +0.244 C 
BRANCH  18  19
ATOM     19  C   UNL     1      16.540  30.193  19.533  0.00  0.00    +0.125 C 
BRANCH  19  23
ATOM     20  O   UNL     1      20.087  32.432  19.641  0.00  0.00    -0.377 OA
ATOM     21  C   UNL     1      20.163  31.103  19.125  0.00  0.00    +0.175 C 
ATOM     22  C   UNL     1      18.776  30.606  18.729  0.00  0.00    +0.112 C 
ATOM     23  N   UNL     1      17.879  30.654  19.892  0.00  0.00    -0.295 NA
ATOM     24  C   UNL     1      17.832  32.018  20.436  0.00  0.00    +0.112 C 
ATOM     25  C   UNL     1      19.242  32.482  20.791  0.00  0.00    +0.175 C 
ENDBRANCH  19  23
ENDBRANCH  18  19
ENDBRANCH  17  18
ENDBRANCH   7  17
ENDBRANCH   1  10
BRANCH   4  26
ATOM     26  C   UNL     1      12.043  30.758   9.348  0.00  0.00    +0.130 A 
ATOM     27  C   UNL     1      10.944  31.581   9.318  0.00  0.00    +0.069 A 
ATOM     28  C   UNL     1      10.399  31.394   8.033  0.00  0.00    +0.071 A 
ATOM     29  N   UNL     1      11.095  30.520   7.302  0.00  0.00    -0.169 NA
ATOM     30  N   UNL     1      12.089  30.152   8.128  0.00  0.00    -0.218 N 
BRANCH  30  31
ATOM     31  C   UNL     1      13.040  29.226   7.695  0.00  0.00    +0.067 A 
ATOM     32  C   UNL     1      14.205  29.665   7.065  0.00  0.00    +0.028 A 
ATOM     33  C   UNL     1      15.153  28.739   6.631  0.00  0.00    +0.005 A 
ATOM     34  C   UNL     1      14.937  27.375   6.824  0.00  0.00    -0.050 A 
ATOM     35  C   UNL     1      15.952  26.386   6.362  0.00  0.00    +0.044 C 
ATOM     36  C   UNL     1      13.772  26.936   7.455  0.00  0.00    +0.005 A 
ATOM     37  C   UNL     1      12.823  27.862   7.889  0.00  0.00    +0.028 A 
ENDBRANCH  30  31
BRANCH  28  38
ATOM     38  C   UNL     1       9.203  32.036   7.464  0.00  0.00    +0.006 C 
ATOM     39  C   UNL     1       8.757  33.382   8.149  0.00  0.00    +0.017 C 
ATOM     40  C   UNL     1       9.386  32.414   5.951  0.00  0.00    +0.017 C 
ATOM     41  C   UNL     1       7.932  31.119   7.545  0.00  0.00    +0.017 C 
ENDBRANCH  28  38
ENDBRANCH   4  26
TORSDOF 8
ENDMDL
MODEL 12
REMARK VINA RESULT:      -9.2      2.255      4.807
REMARK  Name = 156422
REMARK  12 active torsions:
REMARK  status: ('A' for Active; 'I' for Inactive)
REMARK    1  A    between atoms: O_2  and  C_20
REMARK    2  A    between atoms: O_2  and  C_23
REMARK    3  A    between atoms: N_4  and  C_13
REMARK    4  A    between atoms: N_5  and  C_22
REMARK    5  A    between atoms: N_7  and  C_21
REMARK    6  A    between atoms: N_8  and  C_26
REMARK    7  A    between atoms: C_9  and  C_12
REMARK    8  A    between atoms: C_9  and  C_16
REMARK    9  A    between atoms: C_9  and  C_17
REMARK   10  A    between atoms: C_9  and  C_18
REMARK   11  A    between atoms: C_13  and  C_20
REMARK   12  A    between atoms: C_36  and  C_39
REMARK                            x       y       z     vdW  Elec       q    Type
REMARK                         _______ _______ _______ _____ _____    ______ ____
ROOT
ATOM      1  N   UNL     1      12.513  30.257   7.844  0.00  0.00    -0.269 N 
ATOM      2  H   UNL     1      12.829  31.117   7.408  0.00  0.00    +0.156 HD
ATOM      3  C   UNL     1      11.520  30.447   8.834  0.00  0.00    +0.309 C 
ATOM      4  N   UNL     1      11.421  31.811   9.146  0.00  0.00    -0.254 N 
ATOM      5  H   UNL     1      12.030  32.446   8.639  0.00  0.00    +0.158 HD
ATOM      6  O   UNL     1      10.856  29.545   9.334  0.00  0.00    -0.252 OA
ENDROOT
BRANCH   1  10
ATOM      7  C   UNL     1      13.690  26.700   5.973  0.00  0.00    +0.128 A 
ATOM      8  C   UNL     1      12.746  27.540   5.383  0.00  0.00    +0.048 A 
ATOM      9  C   UNL     1      12.367  28.718   6.019  0.00  0.00    +0.027 A 
ATOM     10  C   UNL     1      12.933  29.061   7.248  0.00  0.00    +0.043 A 
ATOM     11  C   UNL     1      13.885  28.227   7.856  0.00  0.00    +0.007 A 
ATOM     12  C   UNL     1      14.464  28.556   9.092  0.00  0.00    +0.010 A 
ATOM     13  C   UNL     1      15.409  27.717   9.683  0.00  0.00    +0.001 A 
ATOM     14  C   UNL     1      15.787  26.538   9.046  0.00  0.00    +0.001 A 
ATOM     15  C   UNL     1      15.222  26.195   7.818  0.00  0.00    +0.012 A 
ATOM     16  C   UNL     1      14.270  27.029   7.209  0.00  0.00    +0.026 A 
BRANCH   7  17
ATOM     17  O   UNL     1      14.031  25.554   5.310  0.00  0.00    -0.490 OA
BRANCH  17  18
ATOM     18  C   UNL     1      13.116  25.083   4.325  0.00  0.00    +0.244 C 
BRANCH  18  19
ATOM     19  C   UNL     1      13.700  23.841   3.672  0.00  0.00    +0.125 C 
BRANCH  19  23
ATOM     20  O   UNL     1      14.575  23.380  -0.407  0.00  0.00    -0.377 OA
ATOM     21  C   UNL     1      14.705  24.688   0.151  0.00  0.00    +0.175 C 
ATOM     22  C   UNL     1      14.806  24.610   1.671  0.00  0.00    +0.112 C 
ATOM     23  N   UNL     1      13.620  23.937   2.216  0.00  0.00    -0.295 NA
ATOM     24  C   UNL     1      13.475  22.605   1.613  0.00  0.00    +0.112 C 
ATOM     25  C   UNL     1      13.407  22.729   0.093  0.00  0.00    +0.175 C 
ENDBRANCH  19  23
ENDBRANCH  18  19
ENDBRANCH  17  18
ENDBRANCH   7  17
ENDBRANCH   1  10
BRANCH   4  26
ATOM     26  C   UNL     1      10.555  32.391  10.076  0.00  0.00    +0.130 A 
ATOM     27  C   UNL     1      10.729  32.641  11.415  0.00  0.00    +0.069 A 
ATOM     28  C   UNL     1       9.521  33.237  11.822  0.00  0.00    +0.071 A 
ATOM     29  N   UNL     1       8.644  33.358  10.822  0.00  0.00    -0.169 NA
ATOM     30  N   UNL     1       9.303  32.836   9.774  0.00  0.00    -0.218 N 
BRANCH  30  31
ATOM     31  C   UNL     1       8.684  32.792   8.523  0.00  0.00    +0.067 A 
ATOM     32  C   UNL     1       8.459  33.972   7.814  0.00  0.00    +0.028 A 
ATOM     33  C   UNL     1       7.839  33.928   6.565  0.00  0.00    +0.005 A 
ATOM     34  C   UNL     1       7.443  32.704   6.026  0.00  0.00    -0.050 A 
ATOM     35  C   UNL     1       6.783  32.656   4.690  0.00  0.00    +0.044 C 
ATOM     36  C   UNL     1       7.669  31.524   6.734  0.00  0.00    +0.005 A 
ATOM     37  C   UNL     1       8.289  31.568   7.983  0.00  0.00    +0.028 A 
ENDBRANCH  30  31
BRANCH  28  38
ATOM     38  C   UNL     1       9.162  33.707  13.171  0.00  0.00    +0.006 C 
ATOM     39  C   UNL     1       9.902  32.995  14.364  0.00  0.00    +0.017 C 
ATOM     40  C   UNL     1       9.473  35.233  13.378  0.00  0.00    +0.017 C 
ATOM     41  C   UNL     1       7.637  33.515  13.489  0.00  0.00    +0.017 C 
ENDBRANCH  28  38
ENDBRANCH   4  26
TORSDOF 8
ENDMDL
MODEL 13
REMARK VINA RESULT:      -9.1      5.006     11.597
REMARK  Name = 156422
REMARK  12 active torsions:
REMARK  status: ('A' for Active; 'I' for Inactive)
REMARK    1  A    between atoms: O_2  and  C_20
REMARK    2  A    between atoms: O_2  and  C_23
REMARK    3  A    between atoms: N_4  and  C_13
REMARK    4  A    between atoms: N_5  and  C_22
REMARK    5  A    between atoms: N_7  and  C_21
REMARK    6  A    between atoms: N_8  and  C_26
REMARK    7  A    between atoms: C_9  and  C_12
REMARK    8  A    between atoms: C_9  and  C_16
REMARK    9  A    between atoms: C_9  and  C_17
REMARK   10  A    between atoms: C_9  and  C_18
REMARK   11  A    between atoms: C_13  and  C_20
REMARK   12  A    between atoms: C_36  and  C_39
REMARK                            x       y       z     vdW  Elec       q    Type
REMARK                         _______ _______ _______ _____ _____    ______ ____
ROOT
ATOM      1  N   UNL     1      13.937  30.309  12.470  0.00  0.00    -0.269 N 
ATOM      2  H   UNL     1      14.672  29.919  11.891  0.00  0.00    +0.156 HD
ATOM      3  C   UNL     1      12.746  30.606  11.766  0.00  0.00    +0.309 C 
ATOM      4  N   UNL     1      12.986  30.530  10.385  0.00  0.00    -0.254 N 
ATOM      5  H   UNL     1      13.923  30.273  10.092  0.00  0.00    +0.158 HD
ATOM      6  O   UNL     1      11.676  30.885  12.296  0.00  0.00    -0.252 OA
ENDROOT
BRANCH   1  10
ATOM      7  C   UNL     1      14.567  30.314  16.611  0.00  0.00    +0.128 A 
ATOM      8  C   UNL     1      14.514  31.509  15.894  0.00  0.00    +0.048 A 
ATOM      9  C   UNL     1      14.303  31.488  14.519  0.00  0.00    +0.027 A 
ATOM     10  C   UNL     1      14.144  30.271  13.855  0.00  0.00    +0.043 A 
ATOM     11  C   UNL     1      14.194  29.058  14.561  0.00  0.00    +0.007 A 
ATOM     12  C   UNL     1      14.037  27.824  13.910  0.00  0.00    +0.010 A 
ATOM     13  C   UNL     1      14.090  26.628  14.626  0.00  0.00    +0.001 A 
ATOM     14  C   UNL     1      14.301  26.650  16.003  0.00  0.00    +0.001 A 
ATOM     15  C   UNL     1      14.460  27.866  16.666  0.00  0.00    +0.012 A 
ATOM     16  C   UNL     1      14.409  29.079  15.960  0.00  0.00    +0.026 A 
BRANCH   7  17
ATOM     17  O   UNL     1      14.775  30.385  17.960  0.00  0.00    -0.490 OA
BRANCH  17  18
ATOM     18  C   UNL     1      16.013  30.940  18.393  0.00  0.00    +0.244 C 
BRANCH  18  19
ATOM     19  C   UNL     1      16.526  30.129  19.572  0.00  0.00    +0.125 C 
BRANCH  19  23
ATOM     20  O   UNL     1      16.573  25.960  20.056  0.00  0.00    -0.377 OA
ATOM     21  C   UNL     1      17.194  26.494  18.886  0.00  0.00    +0.175 C 
ATOM     22  C   UNL     1      17.498  27.977  19.076  0.00  0.00    +0.112 C 
ATOM     23  N   UNL     1      16.258  28.706  19.375  0.00  0.00    -0.295 NA
ATOM     24  C   UNL     1      15.608  28.129  20.560  0.00  0.00    +0.112 C 
ATOM     25  C   UNL     1      15.350  26.642  20.336  0.00  0.00    +0.175 C 
ENDBRANCH  19  23
ENDBRANCH  18  19
ENDBRANCH  17  18
ENDBRANCH   7  17
ENDBRANCH   1  10
BRANCH   4  26
ATOM     26  C   UNL     1      12.057  30.756   9.367  0.00  0.00    +0.130 A 
ATOM     27  C   UNL     1      10.956  31.577   9.336  0.00  0.00    +0.069 A 
ATOM     28  C   UNL     1      10.412  31.389   8.051  0.00  0.00    +0.071 A 
ATOM     29  N   UNL     1      11.110  30.516   7.320  0.00  0.00    -0.169 NA
ATOM     30  N   UNL     1      12.104  30.150   8.147  0.00  0.00    -0.218 N 
BRANCH  30  31
ATOM     31  C   UNL     1      13.056  29.226   7.714  0.00  0.00    +0.067 A 
ATOM     32  C   UNL     1      14.208  29.665   7.058  0.00  0.00    +0.028 A 
ATOM     33  C   UNL     1      15.158  28.741   6.624  0.00  0.00    +0.005 A 
ATOM     34  C   UNL     1      14.958  27.379   6.844  0.00  0.00    -0.050 A 
ATOM     35  C   UNL     1      15.975  26.391   6.382  0.00  0.00    +0.044 C 
ATOM     36  C   UNL     1      13.807  26.939   7.500  0.00  0.00    +0.005 A 
ATOM     37  C   UNL     1      12.856  27.863   7.933  0.00  0.00    +0.028 A 
ENDBRANCH  30  31
BRANCH  28  38
ATOM     38  C   UNL     1       9.214  32.028   7.481  0.00  0.00    +0.006 C 
ATOM     39  C   UNL     1       9.333  32.492   5.982  0.00  0.00    +0.017 C 
ATOM     40  C   UNL     1       7.962  31.081   7.496  0.00  0.00    +0.017 C 
ATOM     41  C   UNL     1       8.800  33.328   8.258  0.00  0.00    +0.017 C 
ENDBRANCH  28  38
ENDBRANCH   4  26
TORSDOF 8
ENDMDL
MODEL 14
REMARK VINA RESULT:      -8.9      5.096     10.316
REMARK  Name = 156422
REMARK  12 active torsions:
REMARK  status: ('A' for Active; 'I' for Inactive)
REMARK    1  A    between atoms: O_2  and  C_20
REMARK    2  A    between atoms: O_2  and  C_23
REMARK    3  A    between atoms: N_4  and  C_13
REMARK    4  A    between atoms: N_5  and  C_22
REMARK    5  A    between atoms: N_7  and  C_21
REMARK    6  A    between atoms: N_8  and  C_26
REMARK    7  A    between atoms: C_9  and  C_12
REMARK    8  A    between atoms: C_9  and  C_16
REMARK    9  A    between atoms: C_9  and  C_17
REMARK   10  A    between atoms: C_9  and  C_18
REMARK   11  A    between atoms: C_13  and  C_20
REMARK   12  A    between atoms: C_36  and  C_39
REMARK                            x       y       z     vdW  Elec       q    Type
REMARK                         _______ _______ _______ _____ _____    ______ ____
ROOT
ATOM      1  N   UNL     1      11.397  32.005  11.244  0.00  0.00    -0.269 N 
ATOM      2  H   UNL     1      12.171  32.469  10.781  0.00  0.00    +0.156 HD
ATOM      3  C   UNL     1      10.290  31.754  10.401  0.00  0.00    +0.309 C 
ATOM      4  N   UNL     1      10.446  32.457   9.197  0.00  0.00    -0.254 N 
ATOM      5  H   UNL     1      11.291  33.009   9.091  0.00  0.00    +0.158 HD
ATOM      6  O   UNL     1       9.344  31.028  10.693  0.00  0.00    -0.252 OA
ENDROOT
BRANCH   1  10
ATOM      7  C   UNL     1      12.041  30.575  15.128  0.00  0.00    +0.128 A 
ATOM      8  C   UNL     1      10.933  31.369  14.833  0.00  0.00    +0.048 A 
ATOM      9  C   UNL     1      10.735  31.835  13.536  0.00  0.00    +0.027 A 
ATOM     10  C   UNL     1      11.645  31.507  12.530  0.00  0.00    +0.043 A 
ATOM     11  C   UNL     1      12.766  30.709  12.810  0.00  0.00    +0.007 A 
ATOM     12  C   UNL     1      13.692  30.370  11.811  0.00  0.00    +0.010 A 
ATOM     13  C   UNL     1      14.800  29.576  12.105  0.00  0.00    +0.001 A 
ATOM     14  C   UNL     1      14.998  29.110  13.403  0.00  0.00    +0.001 A 
ATOM     15  C   UNL     1      14.089  29.438  14.409  0.00  0.00    +0.012 A 
ATOM     16  C   UNL     1      12.967  30.235  14.129  0.00  0.00    +0.026 A 
BRANCH   7  17
ATOM     17  O   UNL     1      12.193  30.141  16.415  0.00  0.00    -0.490 OA
BRANCH  17  18
ATOM     18  C   UNL     1      11.333  29.090  16.846  0.00  0.00    +0.244 C 
BRANCH  18  19
ATOM     19  C   UNL     1      11.983  28.378  18.021  0.00  0.00    +0.125 C 
BRANCH  19  23
ATOM     20  O   UNL     1      14.260  25.725  15.700  0.00  0.00    -0.377 OA
ATOM     21  C   UNL     1      12.872  25.435  15.860  0.00  0.00    +0.175 C 
ATOM     22  C   UNL     1      12.117  26.681  16.313  0.00  0.00    +0.112 C 
ATOM     23  N   UNL     1      12.684  27.177  17.574  0.00  0.00    -0.295 NA
ATOM     24  C   UNL     1      14.120  27.442  17.410  0.00  0.00    +0.112 C 
ATOM     25  C   UNL     1      14.828  26.178  16.930  0.00  0.00    +0.175 C 
ENDBRANCH  19  23
ENDBRANCH  18  19
ENDBRANCH  17  18
ENDBRANCH   7  17
ENDBRANCH   1  10
BRANCH   4  26
ATOM     26  C   UNL     1       9.561  32.462   8.116  0.00  0.00    +0.130 A 
ATOM     27  C   UNL     1       8.440  33.222   7.890  0.00  0.00    +0.069 A 
ATOM     28  C   UNL     1       7.964  32.786   6.639  0.00  0.00    +0.071 A 
ATOM     29  N   UNL     1       8.721  31.823   6.108  0.00  0.00    -0.169 NA
ATOM     30  N   UNL     1       9.685  31.649   7.029  0.00  0.00    -0.218 N 
BRANCH  30  31
ATOM     31  C   UNL     1      10.683  30.697   6.811  0.00  0.00    +0.067 A 
ATOM     32  C   UNL     1      11.693  30.946   5.880  0.00  0.00    +0.028 A 
ATOM     33  C   UNL     1      12.689  29.995   5.662  0.00  0.00    +0.005 A 
ATOM     34  C   UNL     1      12.676  28.795   6.373  0.00  0.00    -0.050 A 
ATOM     35  C   UNL     1      13.743  27.780   6.141  0.00  0.00    +0.044 C 
ATOM     36  C   UNL     1      11.668  28.547   7.305  0.00  0.00    +0.005 A 
ATOM     37  C   UNL     1      10.671  29.498   7.523  0.00  0.00    +0.028 A 
ENDBRANCH  30  31
BRANCH  28  38
ATOM     38  C   UNL     1       6.777  33.268   5.913  0.00  0.00    +0.006 C 
ATOM     39  C   UNL     1       6.503  32.587   4.521  0.00  0.00    +0.017 C 
ATOM     40  C   UNL     1       5.448  33.048   6.720  0.00  0.00    +0.017 C 
ATOM     41  C   UNL     1       6.853  34.802   5.588  0.00  0.00    +0.017 C 
ENDBRANCH  28  38
ENDBRANCH   4  26
TORSDOF 8
ENDMDL
MODEL 15
REMARK VINA RESULT:      -8.7      6.187      9.397
REMARK  Name = 156422
REMARK  12 active torsions:
REMARK  status: ('A' for Active; 'I' for Inactive)
REMARK    1  A    between atoms: O_2  and  C_20
REMARK    2  A    between atoms: O_2  and  C_23
REMARK    3  A    between atoms: N_4  and  C_13
REMARK    4  A    between atoms: N_5  and  C_22
REMARK    5  A    between atoms: N_7  and  C_21
REMARK    6  A    between atoms: N_8  and  C_26
REMARK    7  A    between atoms: C_9  and  C_12
REMARK    8  A    between atoms: C_9  and  C_16
REMARK    9  A    between atoms: C_9  and  C_17
REMARK   10  A    between atoms: C_9  and  C_18
REMARK   11  A    between atoms: C_13  and  C_20
REMARK   12  A    between atoms: C_36  and  C_39
REMARK                            x       y       z     vdW  Elec       q    Type
REMARK                         _______ _______ _______ _____ _____    ______ ____
ROOT
ATOM      1  N   UNL     1      10.359  31.160  11.734  0.00  0.00    -0.269 N 
ATOM      2  H   UNL     1      10.194  30.164  11.829  0.00  0.00    +0.156 HD
ATOM      3  C   UNL     1      11.236  31.694  12.708  0.00  0.00    +0.309 C 
ATOM      4  N   UNL     1      11.442  30.747  13.723  0.00  0.00    -0.254 N 
ATOM      5  H   UNL     1      10.973  29.853  13.623  0.00  0.00    +0.158 HD
ATOM      6  O   UNL     1      11.732  32.814  12.658  0.00  0.00    -0.252 OA
ENDROOT
BRANCH   1  10
ATOM      7  C   UNL     1       8.881  33.029   8.290  0.00  0.00    +0.128 A 
ATOM      8  C   UNL     1       8.431  33.404   9.556  0.00  0.00    +0.048 A 
ATOM      9  C   UNL     1       8.935  32.772  10.689  0.00  0.00    +0.027 A 
ATOM     10  C   UNL     1       9.890  31.763  10.560  0.00  0.00    +0.043 A 
ATOM     11  C   UNL     1      10.353  31.373   9.293  0.00  0.00    +0.007 A 
ATOM     12  C   UNL     1      11.313  30.360   9.144  0.00  0.00    +0.010 A 
ATOM     13  C   UNL     1      11.763  29.985   7.878  0.00  0.00    +0.001 A 
ATOM     14  C   UNL     1      11.259  30.617   6.744  0.00  0.00    +0.001 A 
ATOM     15  C   UNL     1      10.304  31.626   6.873  0.00  0.00    +0.012 A 
ATOM     16  C   UNL     1       9.841  32.016   8.140  0.00  0.00    +0.026 A 
BRANCH   7  17
ATOM     17  O   UNL     1       8.359  33.679   7.207  0.00  0.00    -0.490 OA
BRANCH  17  18
ATOM     18  C   UNL     1       6.990  34.069   7.287  0.00  0.00    +0.244 C 
BRANCH  18  19
ATOM     19  C   UNL     1       6.128  32.933   6.761  0.00  0.00    +0.125 C 
BRANCH  19  23
ATOM     20  O   UNL     1       6.063  34.137   2.741  0.00  0.00    -0.377 OA
ATOM     21  C   UNL     1       5.332  34.929   3.677  0.00  0.00    +0.175 C 
ATOM     22  C   UNL     1       5.813  34.652   5.098  0.00  0.00    +0.112 C 
ATOM     23  N   UNL     1       5.662  33.224   5.406  0.00  0.00    -0.295 NA
ATOM     24  C   UNL     1       6.390  32.416   4.419  0.00  0.00    +0.112 C 
ATOM     25  C   UNL     1       5.896  32.746   3.014  0.00  0.00    +0.175 C 
ENDBRANCH  19  23
ENDBRANCH  18  19
ENDBRANCH  17  18
ENDBRANCH   7  17
ENDBRANCH   1  10
BRANCH   4  26
ATOM     26  C   UNL     1      12.244  30.905  14.856  0.00  0.00    +0.130 A 
ATOM     27  C   UNL     1      11.988  31.550  16.041  0.00  0.00    +0.069 A 
ATOM     28  C   UNL     1      13.162  31.374  16.799  0.00  0.00    +0.071 A 
ATOM     29  N   UNL     1      14.093  30.672  16.149  0.00  0.00    -0.169 NA
ATOM     30  N   UNL     1      13.505  30.400  14.971  0.00  0.00    -0.218 N 
BRANCH  30  31
ATOM     31  C   UNL     1      14.196  29.662  14.009  0.00  0.00    +0.067 A 
ATOM     32  C   UNL     1      14.710  30.298  12.878  0.00  0.00    +0.028 A 
ATOM     33  C   UNL     1      15.399  29.559  11.916  0.00  0.00    +0.005 A 
ATOM     34  C   UNL     1      15.573  28.186  12.083  0.00  0.00    -0.050 A 
ATOM     35  C   UNL     1      16.312  27.397  11.056  0.00  0.00    +0.044 C 
ATOM     36  C   UNL     1      15.061  27.551  13.215  0.00  0.00    +0.005 A 
ATOM     37  C   UNL     1      14.371  28.289  14.176  0.00  0.00    +0.028 A 
ENDBRANCH  30  31
BRANCH  28  38
ATOM     38  C   UNL     1      13.435  31.868  18.159  0.00  0.00    +0.006 C 
ATOM     39  C   UNL     1      12.961  30.934  19.335  0.00  0.00    +0.017 C 
ATOM     40  C   UNL     1      14.968  32.080  18.426  0.00  0.00    +0.017 C 
ATOM     41  C   UNL     1      12.737  33.243  18.451  0.00  0.00    +0.017 C 
ENDBRANCH  28  38
ENDBRANCH   4  26
TORSDOF 8
ENDMDL
MODEL 16
REMARK VINA RESULT:      -8.7      5.008     11.251
REMARK  Name = 156422
REMARK  12 active torsions:
REMARK  status: ('A' for Active; 'I' for Inactive)
REMARK    1  A    between atoms: O_2  and  C_20
REMARK    2  A    between atoms: O_2  and  C_23
REMARK    3  A    between atoms: N_4  and  C_13
REMARK    4  A    between atoms: N_5  and  C_22
REMARK    5  A    between atoms: N_7  and  C_21
REMARK    6  A    between atoms: N_8  and  C_26
REMARK    7  A    between atoms: C_9  and  C_12
REMARK    8  A    between atoms: C_9  and  C_16
REMARK    9  A    between atoms: C_9  and  C_17
REMARK   10  A    between atoms: C_9  and  C_18
REMARK   11  A    between atoms: C_13  and  C_20
REMARK   12  A    between atoms: C_36  and  C_39
REMARK                            x       y       z     vdW  Elec       q    Type
REMARK                         _______ _______ _______ _____ _____    ______ ____
ROOT
ATOM      1  N   UNL     1      13.934  30.330  12.468  0.00  0.00    -0.269 N 
ATOM      2  H   UNL     1      14.671  29.941  11.890  0.00  0.00    +0.156 HD
ATOM      3  C   UNL     1      12.742  30.618  11.762  0.00  0.00    +0.309 C 
ATOM      4  N   UNL     1      12.982  30.539  10.382  0.00  0.00    -0.254 N 
ATOM      5  H   UNL     1      13.921  30.286  10.090  0.00  0.00    +0.158 HD
ATOM      6  O   UNL     1      11.670  30.894  12.291  0.00  0.00    -0.252 OA
ENDROOT
BRANCH   1  10
ATOM      7  C   UNL     1      14.563  30.350  16.609  0.00  0.00    +0.128 A 
ATOM      8  C   UNL     1      14.502  31.543  15.888  0.00  0.00    +0.048 A 
ATOM      9  C   UNL     1      14.292  31.517  14.513  0.00  0.00    +0.027 A 
ATOM     10  C   UNL     1      14.141  30.297  13.853  0.00  0.00    +0.043 A 
ATOM     11  C   UNL     1      14.199  29.086  14.563  0.00  0.00    +0.007 A 
ATOM     12  C   UNL     1      14.049  27.849  13.915  0.00  0.00    +0.010 A 
ATOM     13  C   UNL     1      14.109  26.657  14.635  0.00  0.00    +0.001 A 
ATOM     14  C   UNL     1      14.320  26.683  16.012  0.00  0.00    +0.001 A 
ATOM     15  C   UNL     1      14.471  27.903  16.671  0.00  0.00    +0.012 A 
ATOM     16  C   UNL     1      14.412  29.113  15.962  0.00  0.00    +0.026 A 
BRANCH   7  17
ATOM     17  O   UNL     1      14.769  30.427  17.957  0.00  0.00    -0.490 OA
BRANCH  17  18
ATOM     18  C   UNL     1      13.956  31.345  18.683  0.00  0.00    +0.244 C 
BRANCH  18  19
ATOM     19  C   UNL     1      12.793  30.584  19.300  0.00  0.00    +0.125 C 
BRANCH  19  23
ATOM     20  O   UNL     1       9.924  31.811  16.494  0.00  0.00    -0.377 OA
ATOM     21  C   UNL     1      10.317  32.756  17.489  0.00  0.00    +0.175 C 
ATOM     22  C   UNL     1      11.646  32.345  18.116  0.00  0.00    +0.112 C 
ATOM     23  N   UNL     1      11.527  31.003  18.702  0.00  0.00    -0.295 NA
ATOM     24  C   UNL     1      11.090  30.044  17.679  0.00  0.00    +0.112 C 
ATOM     25  C   UNL     1       9.775  30.509  17.061  0.00  0.00    +0.175 C 
ENDBRANCH  19  23
ENDBRANCH  18  19
ENDBRANCH  17  18
ENDBRANCH   7  17
ENDBRANCH   1  10
BRANCH   4  26
ATOM     26  C   UNL     1      12.053  30.758   9.362  0.00  0.00    +0.130 A 
ATOM     27  C   UNL     1      10.952  31.578   9.326  0.00  0.00    +0.069 A 
ATOM     28  C   UNL     1      10.406  31.380   8.043  0.00  0.00    +0.071 A 
ATOM     29  N   UNL     1      11.104  30.503   7.318  0.00  0.00    -0.169 NA
ATOM     30  N   UNL     1      12.100  30.143   8.147  0.00  0.00    -0.218 N 
BRANCH  30  31
ATOM     31  C   UNL     1      13.052  29.217   7.719  0.00  0.00    +0.067 A 
ATOM     32  C   UNL     1      14.224  29.655   7.101  0.00  0.00    +0.028 A 
ATOM     33  C   UNL     1      15.175  28.729   6.673  0.00  0.00    +0.005 A 
ATOM     34  C   UNL     1      14.955  27.365   6.862  0.00  0.00    -0.050 A 
ATOM     35  C   UNL     1      15.972  26.375   6.406  0.00  0.00    +0.044 C 
ATOM     36  C   UNL     1      13.784  26.927   7.480  0.00  0.00    +0.005 A 
ATOM     37  C   UNL     1      12.832  27.853   7.908  0.00  0.00    +0.028 A 
ENDBRANCH  30  31
BRANCH  28  38
ATOM     38  C   UNL     1       9.208  32.015   7.470  0.00  0.00    +0.006 C 
ATOM     39  C   UNL     1       7.901  31.138   7.471  0.00  0.00    +0.017 C 
ATOM     40  C   UNL     1       8.797  33.324   8.235  0.00  0.00    +0.017 C 
ATOM     41  C   UNL     1       9.403  32.420   5.966  0.00  0.00    +0.017 C 
ENDBRANCH  28  38
ENDBRANCH   4  26
TORSDOF 8
ENDMDL
MODEL 17
REMARK VINA RESULT:      -8.6      3.251      6.628
REMARK  Name = 156422
REMARK  12 active torsions:
REMARK  status: ('A' for Active; 'I' for Inactive)
REMARK    1  A    between atoms: O_2  and  C_20
REMARK    2  A    between atoms: O_2  and  C_23
REMARK    3  A    between atoms: N_4  and  C_13
REMARK    4  A    between atoms: N_5  and  C_22
REMARK    5  A    between atoms: N_7  and  C_21
REMARK    6  A    between atoms: N_8  and  C_26
REMARK    7  A    between atoms: C_9  and  C_12
REMARK    8  A    between atoms: C_9  and  C_16
REMARK    9  A    between atoms: C_9  and  C_17
REMARK   10  A    between atoms: C_9  and  C_18
REMARK   11  A    between atoms: C_13  and  C_20
REMARK   12  A    between atoms: C_36  and  C_39
REMARK                            x       y       z     vdW  Elec       q    Type
REMARK                         _______ _______ _______ _____ _____    ______ ____
ROOT
ATOM      1  N   UNL     1      10.584  30.407   9.992  0.00  0.00    -0.269 N 
ATOM      2  H   UNL     1       9.798  29.795  10.181  0.00  0.00    +0.156 HD
ATOM      3  C   UNL     1      10.963  31.213  11.091  0.00  0.00    +0.309 C 
ATOM      4  N   UNL     1       9.974  31.148  12.085  0.00  0.00    -0.254 N 
ATOM      5  H   UNL     1       9.172  30.554  11.900  0.00  0.00    +0.158 HD
ATOM      6  O   UNL     1      12.001  31.864  11.152  0.00  0.00    -0.252 OA
ENDROOT
BRANCH   1  10
ATOM      7  C   UNL     1      12.726  29.675   6.468  0.00  0.00    +0.128 A 
ATOM      8  C   UNL     1      13.057  29.022   7.655  0.00  0.00    +0.048 A 
ATOM      9  C   UNL     1      12.333  29.277   8.816  0.00  0.00    +0.027 A 
ATOM     10  C   UNL     1      11.276  30.187   8.794  0.00  0.00    +0.043 A 
ATOM     11  C   UNL     1      10.928  30.854   7.607  0.00  0.00    +0.007 A 
ATOM     12  C   UNL     1       9.868  31.772   7.567  0.00  0.00    +0.010 A 
ATOM     13  C   UNL     1       9.536  32.425   6.380  0.00  0.00    +0.001 A 
ATOM     14  C   UNL     1      10.260  32.170   5.218  0.00  0.00    +0.001 A 
ATOM     15  C   UNL     1      11.318  31.261   5.240  0.00  0.00    +0.012 A 
ATOM     16  C   UNL     1      11.664  30.593   6.427  0.00  0.00    +0.026 A 
BRANCH   7  17
ATOM     17  O   UNL     1      13.464  29.391   5.354  0.00  0.00    -0.490 OA
BRANCH  17  18
ATOM     18  C   UNL     1      14.528  28.456   5.507  0.00  0.00    +0.244 C 
BRANCH  18  19
ATOM     19  C   UNL     1      14.094  27.122   4.922  0.00  0.00    +0.125 C 
BRANCH  19  23
ATOM     20  O   UNL     1      17.648  25.029   5.699  0.00  0.00    -0.377 OA
ATOM     21  C   UNL     1      16.852  24.590   4.598  0.00  0.00    +0.175 C 
ATOM     22  C   UNL     1      15.882  25.687   4.172  0.00  0.00    +0.112 C 
ATOM     23  N   UNL     1      15.025  26.063   5.305  0.00  0.00    -0.295 NA
ATOM     24  C   UNL     1      15.852  26.482   6.444  0.00  0.00    +0.112 C 
ATOM     25  C   UNL     1      16.825  25.366   6.816  0.00  0.00    +0.175 C 
ENDBRANCH  19  23
ENDBRANCH  18  19
ENDBRANCH  17  18
ENDBRANCH   7  17
ENDBRANCH   1  10
BRANCH   4  26
ATOM     26  C   UNL     1       9.987  31.806  13.317  0.00  0.00    +0.130 A 
ATOM     27  C   UNL     1       9.294  32.914  13.739  0.00  0.00    +0.069 A 
ATOM     28  C   UNL     1       9.715  33.109  15.068  0.00  0.00    +0.071 A 
ATOM     29  N   UNL     1      10.608  32.198  15.463  0.00  0.00    -0.169 NA
ATOM     30  N   UNL     1      10.752  31.420  14.377  0.00  0.00    -0.218 N 
BRANCH  30  31
ATOM     31  C   UNL     1      11.628  30.333  14.418  0.00  0.00    +0.067 A 
ATOM     32  C   UNL     1      12.982  30.518  14.135  0.00  0.00    +0.028 A 
ATOM     33  C   UNL     1      13.857  29.432  14.175  0.00  0.00    +0.005 A 
ATOM     34  C   UNL     1      13.379  28.163  14.496  0.00  0.00    -0.050 A 
ATOM     35  C   UNL     1      14.314  27.002  14.540  0.00  0.00    +0.044 C 
ATOM     36  C   UNL     1      12.025  27.978  14.780  0.00  0.00    +0.005 A 
ATOM     37  C   UNL     1      11.150  29.064  14.739  0.00  0.00    +0.028 A 
ENDBRANCH  30  31
BRANCH  28  38
ATOM     38  C   UNL     1       9.286  34.165  15.999  0.00  0.00    +0.006 C 
ATOM     39  C   UNL     1       7.731  34.315  16.194  0.00  0.00    +0.017 C 
ATOM     40  C   UNL     1       9.839  33.946  17.453  0.00  0.00    +0.017 C 
ATOM     41  C   UNL     1       9.761  35.593  15.551  0.00  0.00    +0.017 C 
ENDBRANCH  28  38
ENDBRANCH   4  26
TORSDOF 8
ENDMDL
MODEL 18
REMARK VINA RESULT:      -8.6      3.274      7.063
REMARK  Name = 156422
REMARK  12 active torsions:
REMARK  status: ('A' for Active; 'I' for Inactive)
REMARK    1  A    between atoms: O_2  and  C_20
REMARK    2  A    between atoms: O_2  and  C_23
REMARK    3  A    between atoms: N_4  and  C_13
REMARK    4  A    between atoms: N_5  and  C_22
REMARK    5  A    between atoms: N_7  and  C_21
REMARK    6  A    between atoms: N_8  and  C_26
REMARK    7  A    between atoms: C_9  and  C_12
REMARK    8  A    between atoms: C_9  and  C_16
REMARK    9  A    between atoms: C_9  and  C_17
REMARK   10  A    between atoms: C_9  and  C_18
REMARK   11  A    between atoms: C_13  and  C_20
REMARK   12  A    between atoms: C_36  and  C_39
REMARK                            x       y       z     vdW  Elec       q    Type
REMARK                         _______ _______ _______ _____ _____    ______ ____
ROOT
ATOM      1  N   UNL     1      10.126  31.982   6.123  0.00  0.00    -0.269 N 
ATOM      2  H   UNL     1      10.442  32.699   5.480  0.00  0.00    +0.156 HD
ATOM      3  C   UNL     1       8.718  31.869   6.211  0.00  0.00    +0.309 C 
ATOM      4  N   UNL     1       8.118  32.968   5.578  0.00  0.00    -0.254 N 
ATOM      5  H   UNL     1       8.737  33.652   5.154  0.00  0.00    +0.158 HD
ATOM      6  O   UNL     1       8.127  30.944   6.759  0.00  0.00    -0.252 OA
ENDROOT
BRANCH   1  10
ATOM      7  C   UNL     1      13.068  29.333   7.492  0.00  0.00    +0.128 A 
ATOM      8  C   UNL     1      12.802  29.466   6.128  0.00  0.00    +0.048 A 
ATOM      9  C   UNL     1      11.821  30.352   5.693  0.00  0.00    +0.027 A 
ATOM     10  C   UNL     1      11.103  31.108   6.618  0.00  0.00    +0.043 A 
ATOM     11  C   UNL     1      11.357  30.988   7.995  0.00  0.00    +0.007 A 
ATOM     12  C   UNL     1      10.643  31.740   8.940  0.00  0.00    +0.010 A 
ATOM     13  C   UNL     1      10.908  31.608  10.303  0.00  0.00    +0.001 A 
ATOM     14  C   UNL     1      11.889  30.722  10.739  0.00  0.00    +0.001 A 
ATOM     15  C   UNL     1      12.608  29.965   9.814  0.00  0.00    +0.012 A 
ATOM     16  C   UNL     1      12.354  30.087   8.438  0.00  0.00    +0.026 A 
BRANCH   7  17
ATOM     17  O   UNL     1      14.040  28.452   7.871  0.00  0.00    -0.490 OA
BRANCH  17  18
ATOM     18  C   UNL     1      13.840  27.084   7.528  0.00  0.00    +0.244 C 
BRANCH  18  19
ATOM     19  C   UNL     1      15.193  26.392   7.474  0.00  0.00    +0.125 C 
BRANCH  19  23
ATOM     20  O   UNL     1      16.263  25.524   3.510  0.00  0.00    -0.377 OA
ATOM     21  C   UNL     1      14.871  25.648   3.804  0.00  0.00    +0.175 C 
ATOM     22  C   UNL     1      14.671  26.395   5.119  0.00  0.00    +0.112 C 
ATOM     23  N   UNL     1      15.363  25.687   6.205  0.00  0.00    -0.295 NA
ATOM     24  C   UNL     1      16.787  25.534   5.879  0.00  0.00    +0.112 C 
ATOM     25  C   UNL     1      16.938  24.809   4.545  0.00  0.00    +0.175 C 
ENDBRANCH  19  23
ENDBRANCH  18  19
ENDBRANCH  17  18
ENDBRANCH   7  17
ENDBRANCH   1  10
BRANCH   4  26
ATOM     26  C   UNL     1       6.748  33.212   5.457  0.00  0.00    +0.130 A 
ATOM     27  C   UNL     1       5.848  32.772   4.517  0.00  0.00    +0.069 A 
ATOM     28  C   UNL     1       4.621  33.339   4.911  0.00  0.00    +0.071 A 
ATOM     29  N   UNL     1       4.729  34.084   6.014  0.00  0.00    -0.169 NA
ATOM     30  N   UNL     1       6.034  33.986   6.323  0.00  0.00    -0.218 N 
BRANCH  30  31
ATOM     31  C   UNL     1       6.529  34.650   7.446  0.00  0.00    +0.067 A 
ATOM     32  C   UNL     1       6.653  36.040   7.437  0.00  0.00    +0.028 A 
ATOM     33  C   UNL     1       7.149  36.704   8.559  0.00  0.00    +0.005 A 
ATOM     34  C   UNL     1       7.522  35.978   9.690  0.00  0.00    -0.050 A 
ATOM     35  C   UNL     1       8.051  36.687  10.890  0.00  0.00    +0.044 C 
ATOM     36  C   UNL     1       7.398  34.588   9.700  0.00  0.00    +0.005 A 
ATOM     37  C   UNL     1       6.903  33.925   8.577  0.00  0.00    +0.028 A 
ENDBRANCH  30  31
BRANCH  28  38
ATOM     38  C   UNL     1       3.313  33.194   4.252  0.00  0.00    +0.006 C 
ATOM     39  C   UNL     1       3.307  32.356   2.919  0.00  0.00    +0.017 C 
ATOM     40  C   UNL     1       2.256  32.476   5.165  0.00  0.00    +0.017 C 
ATOM     41  C   UNL     1       2.687  34.575   3.845  0.00  0.00    +0.017 C 
ENDBRANCH  28  38
ENDBRANCH   4  26
TORSDOF 8
ENDMDL
MODEL 19
REMARK VINA RESULT:      -8.3      4.610     10.438
REMARK  Name = 156422
REMARK  12 active torsions:
REMARK  status: ('A' for Active; 'I' for Inactive)
REMARK    1  A    between atoms: O_2  and  C_20
REMARK    2  A    between atoms: O_2  and  C_23
REMARK    3  A    between atoms: N_4  and  C_13
REMARK    4  A    between atoms: N_5  and  C_22
REMARK    5  A    between atoms: N_7  and  C_21
REMARK    6  A    between atoms: N_8  and  C_26
REMARK    7  A    between atoms: C_9  and  C_12
REMARK    8  A    between atoms: C_9  and  C_16
REMARK    9  A    between atoms: C_9  and  C_17
REMARK   10  A    between atoms: C_9  and  C_18
REMARK   11  A    between atoms: C_13  and  C_20
REMARK   12  A    between atoms: C_36  and  C_39
REMARK                            x       y       z     vdW  Elec       q    Type
REMARK                         _______ _______ _______ _____ _____    ______ ____
ROOT
ATOM      1  N   UNL     1       7.794  31.721   6.463  0.00  0.00    -0.269 N 
ATOM      2  H   UNL     1       7.304  30.915   6.835  0.00  0.00    +0.156 HD
ATOM      3  C   UNL     1       9.202  31.584   6.453  0.00  0.00    +0.309 C 
ATOM      4  N   UNL     1       9.570  30.464   7.215  0.00  0.00    -0.254 N 
ATOM      5  H   UNL     1       8.820  29.924   7.635  0.00  0.00    +0.158 HD
ATOM      6  O   UNL     1       9.971  32.337   5.864  0.00  0.00    -0.252 OA
ENDROOT
BRANCH   1  10
ATOM      7  C   UNL     1       5.429  34.563   4.494  0.00  0.00    +0.128 A 
ATOM      8  C   UNL     1       5.607  33.286   3.960  0.00  0.00    +0.048 A 
ATOM      9  C   UNL     1       6.396  32.355   4.629  0.00  0.00    +0.027 A 
ATOM     10  C   UNL     1       7.009  32.697   5.834  0.00  0.00    +0.043 A 
ATOM     11  C   UNL     1       6.841  33.978   6.387  0.00  0.00    +0.007 A 
ATOM     12  C   UNL     1       7.451  34.339   7.598  0.00  0.00    +0.010 A 
ATOM     13  C   UNL     1       7.273  35.615   8.132  0.00  0.00    +0.001 A 
ATOM     14  C   UNL     1       6.484  36.547   7.463  0.00  0.00    +0.001 A 
ATOM     15  C   UNL     1       5.871  36.205   6.258  0.00  0.00    +0.012 A 
ATOM     16  C   UNL     1       6.039  34.925   5.706  0.00  0.00    +0.026 A 
BRANCH   7  17
ATOM     17  O   UNL     1       4.645  35.442   3.802  0.00  0.00    -0.490 OA
BRANCH  17  18
ATOM     18  C   UNL     1       3.276  35.088   3.631  0.00  0.00    +0.244 C 
BRANCH  18  19
ATOM     19  C   UNL     1       2.558  35.257   4.960  0.00  0.00    +0.125 C 
BRANCH  19  23
ATOM     20  O   UNL     1       2.095  31.201   5.932  0.00  0.00    -0.377 OA
ATOM     21  C   UNL     1       1.394  31.688   4.787  0.00  0.00    +0.175 C 
ATOM     22  C   UNL     1       2.005  33.002   4.309  0.00  0.00    +0.112 C 
ATOM     23  N   UNL     1       1.967  33.992   5.393  0.00  0.00    -0.295 NA
ATOM     24  C   UNL     1       2.662  33.470   6.577  0.00  0.00    +0.112 C 
ATOM     25  C   UNL     1       2.036  32.144   7.002  0.00  0.00    +0.175 C 
ENDBRANCH  19  23
ENDBRANCH  18  19
ENDBRANCH  17  18
ENDBRANCH   7  17
ENDBRANCH   1  10
BRANCH   4  26
ATOM     26  C   UNL     1      10.869  30.003   7.441  0.00  0.00    +0.130 A 
ATOM     27  C   UNL     1      11.663  29.178   6.682  0.00  0.00    +0.069 A 
ATOM     28  C   UNL     1      12.861  29.071   7.415  0.00  0.00    +0.071 A 
ATOM     29  N   UNL     1      12.834  29.771   8.551  0.00  0.00    -0.169 NA
ATOM     30  N   UNL     1      11.610  30.327   8.538  0.00  0.00    -0.218 N 
BRANCH  30  31
ATOM     31  C   UNL     1      11.215  31.150   9.595  0.00  0.00    +0.067 A 
ATOM     32  C   UNL     1      10.678  32.411   9.334  0.00  0.00    +0.028 A 
ATOM     33  C   UNL     1      10.285  33.233  10.391  0.00  0.00    +0.005 A 
ATOM     34  C   UNL     1      10.429  32.795  11.706  0.00  0.00    -0.050 A 
ATOM     35  C   UNL     1      10.007  33.673  12.835  0.00  0.00    +0.044 C 
ATOM     36  C   UNL     1      10.966  31.534  11.967  0.00  0.00    +0.005 A 
ATOM     37  C   UNL     1      11.359  30.712  10.911  0.00  0.00    +0.028 A 
ENDBRANCH  30  31
BRANCH  28  38
ATOM     38  C   UNL     1      14.064  28.300   7.059  0.00  0.00    +0.006 C 
ATOM     39  C   UNL     1      15.156  29.077   6.232  0.00  0.00    +0.017 C 
ATOM     40  C   UNL     1      14.836  27.774   8.321  0.00  0.00    +0.017 C 
ATOM     41  C   UNL     1      13.734  27.042   6.180  0.00  0.00    +0.017 C 
ENDBRANCH  28  38
ENDBRANCH   4  26
TORSDOF 8
ENDMDL
MODEL 20
REMARK VINA RESULT:      -8.2     13.554     19.048
REMARK  Name = 156422
REMARK  12 active torsions:
REMARK  status: ('A' for Active; 'I' for Inactive)
REMARK    1  A    between atoms: O_2  and  C_20
REMARK    2  A    between atoms: O_2  and  C_23
REMARK    3  A    between atoms: N_4  and  C_13
REMARK    4  A    between atoms: N_5  and  C_22
REMARK    5  A    between atoms: N_7  and  C_21
REMARK    6  A    between atoms: N_8  and  C_26
REMARK    7  A    between atoms: C_9  and  C_12
REMARK    8  A    between atoms: C_9  and  C_16
REMARK    9  A    between atoms: C_9  and  C_17
REMARK   10  A    between atoms: C_9  and  C_18
REMARK   11  A    between atoms: C_13  and  C_20
REMARK   12  A    between atoms: C_36  and  C_39
REMARK                            x       y       z     vdW  Elec       q    Type
REMARK                         _______ _______ _______ _____ _____    ______ ____
ROOT
ATOM      1  N   UNL     1       4.969  36.129  -6.410  0.00  0.00    -0.269 N 
ATOM      2  H   UNL     1       5.041  35.666  -7.310  0.00  0.00    +0.156 HD
ATOM      3  C   UNL     1       5.820  35.590  -5.417  0.00  0.00    +0.309 C 
ATOM      4  N   UNL     1       6.355  34.373  -5.866  0.00  0.00    -0.254 N 
ATOM      5  H   UNL     1       6.087  34.066  -6.795  0.00  0.00    +0.158 HD
ATOM      6  O   UNL     1       6.046  36.119  -4.333  0.00  0.00    -0.252 OA
ENDROOT
BRANCH   1  10
ATOM      7  C   UNL     1       2.683  39.635  -6.264  0.00  0.00    +0.128 A 
ATOM      8  C   UNL     1       2.172  38.427  -5.789  0.00  0.00    +0.048 A 
ATOM      9  C   UNL     1       2.946  37.273  -5.845  0.00  0.00    +0.027 A 
ATOM     10  C   UNL     1       4.235  37.322  -6.377  0.00  0.00    +0.043 A 
ATOM     11  C   UNL     1       4.766  38.529  -6.860  0.00  0.00    +0.007 A 
ATOM     12  C   UNL     1       6.060  38.597  -7.399  0.00  0.00    +0.010 A 
ATOM     13  C   UNL     1       6.572  39.804  -7.875  0.00  0.00    +0.001 A 
ATOM     14  C   UNL     1       5.797  40.960  -7.819  0.00  0.00    +0.001 A 
ATOM     15  C   UNL     1       4.508  40.911  -7.287  0.00  0.00    +0.012 A 
ATOM     16  C   UNL     1       3.978  39.703  -6.803  0.00  0.00    +0.026 A 
BRANCH   7  17
ATOM     17  O   UNL     1       1.886  40.742  -6.187  0.00  0.00    -0.490 OA
BRANCH  17  18
ATOM     18  C   UNL     1       0.481  40.520  -6.091  0.00  0.00    +0.244 C 
BRANCH  18  19
ATOM     19  C   UNL     1      -0.053  41.285  -4.891  0.00  0.00    +0.125 C 
BRANCH  19  23
ATOM     20  O   UNL     1      -0.045  40.118  -0.860  0.00  0.00    -0.377 OA
ATOM     21  C   UNL     1       1.114  40.790  -1.353  0.00  0.00    +0.175 C 
ATOM     22  C   UNL     1       0.788  41.534  -2.644  0.00  0.00    +0.112 C 
ATOM     23  N   UNL     1       0.277  40.591  -3.648  0.00  0.00    -0.295 NA
ATOM     24  C   UNL     1      -0.896  39.881  -3.120  0.00  0.00    +0.112 C 
ATOM     25  C   UNL     1      -0.531  39.176  -1.817  0.00  0.00    +0.175 C 
ENDBRANCH  19  23
ENDBRANCH  18  19
ENDBRANCH  17  18
ENDBRANCH   7  17
ENDBRANCH   1  10
BRANCH   4  26
ATOM     26  C   UNL     1       7.237  33.544  -5.168  0.00  0.00    +0.130 A 
ATOM     27  C   UNL     1       7.011  32.703  -4.106  0.00  0.00    +0.069 A 
ATOM     28  C   UNL     1       8.270  32.134  -3.834  0.00  0.00    +0.071 A 
ATOM     29  N   UNL     1       9.224  32.577  -4.656  0.00  0.00    -0.169 NA
ATOM     30  N   UNL     1       8.565  33.433  -5.456  0.00  0.00    -0.218 N 
BRANCH  30  31
ATOM     31  C   UNL     1       9.255  34.104  -6.467  0.00  0.00    +0.067 A 
ATOM     32  C   UNL     1       9.708  33.405  -7.586  0.00  0.00    +0.028 A 
ATOM     33  C   UNL     1      10.400  34.076  -8.594  0.00  0.00    +0.005 A 
ATOM     34  C   UNL     1      10.640  35.445  -8.483  0.00  0.00    -0.050 A 
ATOM     35  C   UNL     1      11.377  36.163  -9.562  0.00  0.00    +0.044 C 
ATOM     36  C   UNL     1      10.187  36.145  -7.364  0.00  0.00    +0.005 A 
ATOM     37  C   UNL     1       9.495  35.473  -6.356  0.00  0.00    +0.028 A 
ENDBRANCH  30  31
BRANCH  28  38
ATOM     38  C   UNL     1       8.604  31.156  -2.785  0.00  0.00    +0.006 C 
ATOM     39  C   UNL     1       8.208  29.663  -3.090  0.00  0.00    +0.017 C 
ATOM     40  C   UNL     1      10.146  31.095  -2.489  0.00  0.00    +0.017 C 
ATOM     41  C   UNL     1       7.899  31.474  -1.419  0.00  0.00    +0.017 C 
ENDBRANCH  28  38
ENDBRANCH   4  26
TORSDOF 8
ENDMDL
